@<TRIPOS>MOLECULE
tmp/6n6tA00.pdb
 97 92 0 0 0
SMALL
GASTEIGER

@<TRIPOS>ATOM
      1  N        -18.9510   12.8090  -21.8880 N.3    48  ALA48      -0.1231
      2  CA       -19.9420   12.7710  -20.8120 C.3    48  ALA48       0.1694
      3  C        -19.4370   11.8070  -19.7350 C.2    48  ALA48       0.2592
      4  O        -18.2250   11.6500  -19.5330 O.2    48  ALA48      -0.2718
      5  CB       -21.3330   12.4870  -21.3490 C.3    48  ALA48       0.0304
      6  N        -20.3520   11.1060  -19.0650 N.am   49  SER49      -0.1952
      7  CA       -19.9260   10.2710  -17.9500 C.3    49  SER49       0.1924
      8  C        -19.1980    8.9950  -18.3700 C.2    49  SER49       0.2314
      9  O        -18.7740    8.2480  -17.4720 O.2    49  SER49      -0.2863
     10  CB       -21.1030    9.9370  -17.0360 C.3    49  SER49       0.2116
     11  OG       -21.3770   11.0240  -16.1760 O.3    49  SER49      -0.2180
     12  N        -16.0260    8.8470  -16.4870 N.3    52  LYS52      -0.1245
     13  CA       -15.8820    8.3190  -15.1310 C.3    52  LYS52       0.1561
     14  C        -14.9170    7.1410  -15.0770 C.2    52  LYS52       0.2260
     15  O        -14.2440    6.9460  -14.0640 O.2    52  LYS52      -0.2867
     16  CB       -17.2320    7.8850  -14.5580 C.3    52  LYS52       0.0271
     17  CG       -18.1630    9.0070  -14.1600 C.3    52  LYS52       0.0035
     18  CD       -19.3100    8.4160  -13.3230 C.3    52  LYS52       0.0206
     19  CE       -20.3660    9.4170  -12.9320 C.3    52  LYS52       0.1093
     20  NZ       -21.4530    8.7060  -12.2020 N.3    52  LYS52      -0.1314
     21  N        -24.4890    5.5230  -10.9090 N.3    84  LEU84      -0.1231
     22  CA       -25.5960    6.4320  -10.5380 C.3    84  LEU84       0.1693
     23  C        -25.5170    7.7400  -11.3060 C.2    84  LEU84       0.2593
     24  O        -24.4230    8.2100  -11.5880 O.2    84  LEU84      -0.2718
     25  CB       -25.6100    6.6940   -9.0310 C.3    84  LEU84       0.0284
     26  CG       -25.9190    5.4880   -8.1630 C.3    84  LEU84       0.0019
     27  CD1      -25.8010    5.8450   -6.6910 C.3    84  LEU84       0.0001
     28  CD2      -27.2840    4.9290   -8.4820 C.3    84  LEU84       0.0001
     29  N        -26.7020    8.2630  -11.6100 N.am   85  SER85      -0.1938
     30  CA       -26.8340    9.4920  -12.3760 C.3    85  SER85       0.2055
     31  C        -26.9130   10.6830  -11.4330 C.2    85  SER85       0.2642
     32  O        -27.5070   10.5980  -10.3530 O.2    85  SER85      -0.2714
     33  CB       -28.1080    9.4490  -13.2230 C.3    85  SER85       0.2130
     34  OG       -28.2120    8.2370  -13.9530 O.3    85  SER85      -0.2179
     35  N        -26.3100   11.7950  -11.8540 N.am   86  ALA86      -0.1977
     36  CA       -26.3870   13.0690  -11.1370 C.3    86  ALA86       0.1597
     37  C        -25.8920   12.9570   -9.6940 C.2    86  ALA86       0.2287
     38  O        -26.5260   13.4430   -8.7550 O.2    86  ALA86      -0.2864
     39  CB       -27.7880   13.6870  -11.2150 C.3    86  ALA86       0.0319
     40  N        -18.1830   16.9550  -19.7330 N.3   125  LEU125     -0.1245
     41  CA       -19.5950   17.1440  -20.0420 C.3   125  LEU125      0.1561
     42  C        -19.8480   18.2390  -21.0620 C.2   125  LEU125      0.2260
     43  O        -20.8020   18.1380  -21.8440 O.2   125  LEU125     -0.2867
     44  CB       -20.3860   17.4630  -18.7690 C.3   125  LEU125      0.0270
     45  CG       -20.6910   16.3000  -17.8240 C.3   125  LEU125      0.0019
     46  CD1      -21.2590   16.8260  -16.5200 C.3   125  LEU125      0.0001
     47  CD2      -21.6540   15.3190  -18.4710 C.3   125  LEU125      0.0001
     48  N        -20.5390    1.5570  -19.4810 N.3   175  LYS175     -0.1231
     49  CA       -20.7890    2.8500  -18.8620 C.3   175  LYS175      0.1693
     50  C        -21.6430    3.6880  -19.8000 C.2   175  LYS175      0.2593
     51  O        -21.2900    3.8620  -20.9700 O.2   175  LYS175     -0.2718
     52  CB       -19.4620    3.5750  -18.6020 C.3   175  LYS175      0.0285
     53  CG       -19.6090    4.8820  -17.8730 C.3   175  LYS175      0.0035
     54  CD       -19.9950    4.6480  -16.4190 C.3   175  LYS175      0.0206
     55  CE       -20.6280    5.8810  -15.8130 C.3   175  LYS175      0.1093
     56  NZ       -22.0360    6.0520  -16.2640 N.3   175  LYS175     -0.1314
     57  N        -22.7410    4.2320  -19.2780 N.am  176  THR176     -0.1939
     58  CA       -23.5680    5.1670  -20.0260 C.3   176  THR176      0.2028
     59  C        -23.0240    6.5900  -19.9150 C.2   176  THR176      0.2643
     60  O        -22.3220    6.9520  -18.9640 O.2   176  THR176     -0.2714
     61  CB       -24.9970    5.1660  -19.4800 C.3   176  THR176      0.1808
     62  OG1      -24.9490    5.3790  -18.0630 O.3   176  THR176     -0.2208
     63  CG2      -25.7330    3.8450  -19.7740 C.3   176  THR176      0.0379
     64  N        -23.3540    7.3980  -20.9120 N.am  177  GLY177     -0.1939
     65  CA       -23.1280    8.8330  -20.8350 C.3   177  GLY177      0.2014
     66  C        -24.2140    9.5520  -21.6020 C.2   177  GLY177      0.2638
     67  O        -24.7680    9.0270  -22.5710 O.2   177  GLY177     -0.2714
     68  N        -24.5440   10.7520  -21.1450 N.am  178  TRP178     -0.1973
     69  CA       -25.5390   11.5770  -21.8310 C.3   178  TRP178      0.1640
     70  C        -25.1410   13.0220  -21.5820 C.2   178  TRP178      0.2290
     71  O        -25.2340   13.4970  -20.4450 O.2   178  TRP178     -0.2864
     72  CB       -26.9410   11.2990  -21.2920 C.3   178  TRP178      0.0576
     73  CG       -28.0790   11.9480  -22.0580 C.ar  178  TRP178      0.0006
     74  CD1      -28.0150   13.0360  -22.8990 C.ar  178  TRP178      0.0946
     75  CD2      -29.4570   11.5620  -22.0140 C.ar  178  TRP178      0.0152
     76  NE1      -29.2690   13.3310  -23.3880 N.ar  178  TRP178     -0.2442
     77  CE2      -30.1710   12.4440  -22.8600 C.ar  178  TRP178      0.0810
     78  CE3      -30.1580   10.5490  -21.3470 C.ar  178  TRP178      0.0012
     79  CZ2      -31.5510   12.3360  -23.0580 C.ar  178  TRP178      0.0191
     80  CZ3      -31.5180   10.4440  -21.5420 C.ar  178  TRP178      0.0001
     81  CH2      -32.2070   11.3360  -22.3870 C.ar  178  TRP178      0.0015
     82  N        -33.8230    7.1440  -20.7010 N.3   215  ALA215     -0.1245
     83  CA       -32.4120    6.8000  -20.5560 C.3   215  ALA215      0.1562
     84  C        -32.1240    5.3840  -21.0510 C.2   215  ALA215      0.2260
     85  O        -31.0540    5.1210  -21.6130 O.2   215  ALA215     -0.2867
     86  CB       -32.0110    6.9570  -19.0880 C.3   215  ALA215      0.0290
     87  N        -30.5750    3.6090  -24.8510 N.3   218  ARG218     -0.1245
     88  CA       -29.2440    3.1840  -25.2670 C.3   218  ARG218      0.1563
     89  C        -29.0580    1.6910  -25.0360 C.2   218  ARG218      0.2260
     90  O        -28.6300    0.9570  -25.9380 O.2   218  ARG218     -0.2867
     91  CB       -28.1790    4.0030  -24.5370 C.3   218  ARG218      0.0307
     92  CG       -28.2610    5.5000  -24.8670 C.3   218  ARG218      0.0489
     93  CD       -27.6510    6.3730  -23.7890 C.3   218  ARG218      0.2205
     94  NE       -28.3530    6.2460  -22.5180 N.pl3 218  ARG218     -0.0865
     95  CZ       -27.9770    6.8260  -21.3820 C.cat 218  ARG218      0.5346
     96  NH1      -28.6820    6.6210  -20.2830 N.pl3 218  ARG218      0.1354
     97  NH2      -26.9140    7.6160  -21.3410 N.pl3 218  ARG218      0.1354
@<TRIPOS>BOND
     1    90    89    2
     2    88    89    1
     3    88    87    1
     4    88    91    1
     5    92    91    1
     6    92    93    1
     7    93    94    1
     8    76    74   ar
     9    76    77   ar
    10    79    77   ar
    11    79    81   ar
    12    74    73   ar
    13    77    75   ar
    14    67    66    2
    15    94    95    2
    16    81    80   ar
    17    73    75   ar
    18    73    72    1
    19    75    78   ar
    20     1     2    1
    21    43    42    2
    22    69    70    1
    23    69    72    1
    24    69    68    1
    25    85    84    2
    26    66    68   am
    27    66    65    1
    28    70    71    2
    29    80    78   ar
    30    95    97    1
    31    95    96    1
    32     5     2    1
    33    42    41    1
    34    84    83    1
    35    51    50    2
    36    64    65    1
    37    64    59   am
    38     2     3    1
    39    82    83    1
    40    83    86    1
    41    41    40    1
    42    41    44    1
    43    58    59    1
    44    58    61    1
    45    58    57    1
    46    59    60    2
    47    50    57   am
    48    50    49    1
    49    63    61    1
    50     3     4    2
    51     3     6   am
    52    48    49    1
    53    61    62    1
    54     6     7    1
    55    49    52    1
    56    44    45    1
    57    52    53    1
    58    47    45    1
    59     8     7    1
    60     8     9    2
    61     7    10    1
    62    53    54    1
    63    45    46    1
    64    10    11    1
    65    12    13    1
    66    54    55    1
    67    56    55    1
    68    13    14    1
    69    13    16    1
    70    14    15    2
    71    16    17    1
    72    17    18    1
    73    34    33    1
    74    18    19    1
    75    33    30    1
    76    19    20    1
    77    30    29    1
    78    30    31    1
    79    35    31   am
    80    35    36    1
    81    29    23   am
    82    24    23    2
    83    31    32    2
    84    23    22    1
    85    39    36    1
    86    36    37    1
    87    21    22    1
    88    22    25    1
    89    37    38    2
    90    25    26    1
    91    28    26    1
    92    26    27    1
