@<TRIPOS>MOLECULE
tmp/6n6uA00.pdb
 126 120 0 0 0
SMALL
GASTEIGER

@<TRIPOS>ATOM
      1  N        -18.7790   13.0100  -21.6830 N.3    48  ALA48      -0.1231
      2  CA       -19.7510   13.0250  -20.5920 C.3    48  ALA48       0.1694
      3  C        -19.3520   12.0090  -19.5250 C.2    48  ALA48       0.2592
      4  O        -18.1570   11.8720  -19.2130 O.2    48  ALA48      -0.2718
      5  CB       -21.1790   12.7610  -21.1050 C.3    48  ALA48       0.0304
      6  N        -20.3240   11.2580  -19.0030 N.am   49  SER49      -0.1952
      7  CA       -20.0580   10.3980  -17.8580 C.3    49  SER49       0.1924
      8  C        -19.1570    9.2220  -18.1990 C.2    49  SER49       0.2314
      9  O        -18.7050    8.5290  -17.2820 O.2    49  SER49      -0.2863
     10  CB       -21.3560    9.8570  -17.2470 C.3    49  SER49       0.2116
     11  OG       -22.0770   10.8870  -16.5430 O.3    49  SER49      -0.2180
     12  N        -15.9060    9.0910  -16.3260 N.3    52  LYS52      -0.1245
     13  CA       -15.7910    8.5430  -14.9780 C.3    52  LYS52       0.1561
     14  C        -14.8430    7.3430  -14.9270 C.2    52  LYS52       0.2260
     15  O        -14.1560    7.1450  -13.9210 O.2    52  LYS52      -0.2867
     16  CB       -17.1600    8.1260  -14.4430 C.3    52  LYS52       0.0271
     17  CG       -18.0560    9.2720  -14.0230 C.3    52  LYS52       0.0035
     18  CD       -19.2910    8.6990  -13.3270 C.3    52  LYS52       0.0206
     19  CE       -20.1640    9.7620  -12.7160 C.3    52  LYS52       0.1093
     20  NZ       -21.3520    9.0920  -12.1070 N.3    52  LYS52      -0.1314
     21  N        -24.4330    5.8140  -10.4290 N.3    83  LEU83      -0.1231
     22  CA       -25.4060    6.8440  -10.1210 C.3    83  LEU83       0.1693
     23  C        -24.9860    8.1790  -10.7260 C.2    83  LEU83       0.2592
     24  O        -23.9760    8.2830  -11.4300 O.2    83  LEU83      -0.2718
     25  CB       -25.5640    6.9660   -8.6080 C.3    83  LEU83       0.0284
     26  CG       -26.1350    5.7420   -7.8960 C.3    83  LEU83       0.0019
     27  CD1      -25.8840    5.8470   -6.3980 C.3    83  LEU83       0.0001
     28  CD2      -27.6170    5.6040   -8.1920 C.3    83  LEU83       0.0001
     29  N        -25.7070    9.2410  -10.3380 N.am   84  SER84      -0.1952
     30  CA       -25.2310   10.6160  -10.4510 C.3    84  SER84       0.1924
     31  C        -25.6150   11.4460   -9.2230 C.2    84  SER84       0.2314
     32  O        -25.6160   12.6830   -9.2940 O.2    84  SER84      -0.2863
     33  CB       -25.7770   11.2900  -11.7120 C.3    84  SER84       0.2116
     34  OG       -26.2920   12.5770  -11.4150 O.3    84  SER84      -0.2180
     35  N        -15.2420   17.3370  -19.0560 N.3   123  TRP123     -0.1227
     36  CA       -15.7220   16.1570  -19.7650 C.3   123  TRP123      0.1737
     37  C        -17.1680   16.2860  -20.2260 C.2   123  TRP123      0.2595
     38  O        -17.6390   15.4270  -20.9810 O.2   123  TRP123     -0.2718
     39  CB       -15.5880   14.9130  -18.8750 C.3   123  TRP123      0.0564
     40  CG       -16.2660   15.0610  -17.5520 C.ar  123  TRP123      0.0003
     41  CD1      -17.5840   14.8200  -17.2690 C.ar  123  TRP123      0.0946
     42  CD2      -15.6700   15.5120  -16.3290 C.ar  123  TRP123      0.0152
     43  NE1      -17.8380   15.0770  -15.9430 N.ar  123  TRP123     -0.2442
     44  CE2      -16.6800   15.5000  -15.3430 C.ar  123  TRP123      0.0810
     45  CE3      -14.3790   15.9100  -15.9680 C.ar  123  TRP123      0.0012
     46  CZ2      -16.4380   15.8760  -14.0210 C.ar  123  TRP123      0.0191
     47  CZ3      -14.1400   16.2870  -14.6530 C.ar  123  TRP123      0.0001
     48  CH2      -15.1640   16.2650  -13.6960 C.ar  123  TRP123      0.0015
     49  N        -17.8780   17.3260  -19.7970 N.am  124  LEU124     -0.1980
     50  CA       -19.3040   17.4770  -20.0500 C.3   124  LEU124      0.1596
     51  C        -19.6270   18.4960  -21.1290 C.2   124  LEU124      0.2287
     52  O        -20.5750   18.3030  -21.9000 O.2   124  LEU124     -0.2864
     53  CB       -20.0150   17.8850  -18.7570 C.3   124  LEU124      0.0297
     54  CG       -21.5050   17.5900  -18.6640 C.3   124  LEU124      0.0022
     55  CD1      -21.7900   16.1750  -19.1610 C.3   124  LEU124      0.0001
     56  CD2      -21.9780   17.7790  -17.2310 C.3   124  LEU124      0.0001
     57  N        -20.4920    1.6560  -19.3410 N.3   174  LYS174     -0.1231
     58  CA       -20.7040    2.9690  -18.7540 C.3   174  LYS174      0.1693
     59  C        -21.5460    3.8020  -19.7030 C.2   174  LYS174      0.2593
     60  O        -21.1790    3.9720  -20.8700 O.2   174  LYS174     -0.2718
     61  CB       -19.3610    3.6710  -18.4970 C.3   174  LYS174      0.0285
     62  CG       -19.4700    4.9860  -17.7460 C.3   174  LYS174      0.0035
     63  CD       -19.8590    4.7330  -16.3080 C.3   174  LYS174      0.0206
     64  CE       -20.3810    5.9880  -15.6520 C.3   174  LYS174      0.1093
     65  NZ       -21.7850    6.2680  -16.0810 N.3   174  LYS174     -0.1314
     66  N        -22.6500    4.3480  -19.1970 N.am  175  THR175     -0.1939
     67  CA       -23.4450    5.2860  -19.9810 C.3   175  THR175      0.2028
     68  C        -22.9320    6.7140  -19.8240 C.2   175  THR175      0.2643
     69  O        -22.2130    7.0560  -18.8750 O.2   175  THR175     -0.2714
     70  CB       -24.9210    5.2540  -19.5670 C.3   175  THR175      0.1808
     71  OG1      -25.0190    5.5780  -18.1760 O.3   175  THR175     -0.2208
     72  CG2      -25.5420    3.8820  -19.8130 C.3   175  THR175      0.0379
     73  N        -23.3030    7.5460  -20.7860 N.am  176  GLY176     -0.1939
     74  CA       -23.0830    8.9790  -20.6790 C.3   176  GLY176      0.2014
     75  C        -24.1480    9.7110  -21.4660 C.2   176  GLY176      0.2638
     76  O        -24.6290    9.2240  -22.4870 O.2   176  GLY176     -0.2714
     77  N        -24.4880   10.9060  -20.9990 N.am  177  TRP177     -0.1973
     78  CA       -25.4490   11.7530  -21.6960 C.3   177  TRP177      0.1640
     79  C        -25.0060   13.1870  -21.4750 C.2   177  TRP177      0.2290
     80  O        -25.0520   13.6840  -20.3460 O.2   177  TRP177     -0.2864
     81  CB       -26.8650   11.5270  -21.1670 C.3   177  TRP177      0.0576
     82  CG       -27.9820   12.1700  -21.9450 C.ar  177  TRP177      0.0006
     83  CD1      -27.9230   13.2780  -22.7460 C.ar  177  TRP177      0.0946
     84  CD2      -29.3530   11.7590  -21.9290 C.ar  177  TRP177      0.0152
     85  NE1      -29.1770   13.5660  -23.2430 N.ar  177  TRP177     -0.2442
     86  CE2      -30.0660   12.6430  -22.7610 C.ar  177  TRP177      0.0810
     87  CE3      -30.0420   10.7100  -21.3050 C.ar  177  TRP177      0.0012
     88  CZ2      -31.4380   12.5180  -22.9850 C.ar  177  TRP177      0.0191
     89  CZ3      -31.4230   10.5860  -21.5230 C.ar  177  TRP177      0.0001
     90  CH2      -32.0980   11.4870  -22.3580 C.ar  177  TRP177      0.0015
     91  N        -26.2980   16.4600  -21.9820 N.3   179  ALA179     -0.1245
     92  CA       -27.6120   17.0280  -22.2480 C.3   179  ALA179      0.1562
     93  C        -27.5740   18.5260  -22.4740 C.2   179  ALA179      0.2260
     94  O        -28.5450   19.0860  -23.0020 O.2   179  ALA179     -0.2867
     95  CB       -28.5540   16.7200  -21.0840 C.3   179  ALA179      0.0290
     96  N        -27.3730   17.0010  -28.4150 N.3   184  GLN184     -0.1245
     97  CA       -27.0570   16.1530  -27.2730 C.3   184  GLN184      0.1566
     98  C        -26.3930   14.8660  -27.7340 C.2   184  GLN184      0.2260
     99  O        -26.6660   14.3560  -28.8270 O.2   184  GLN184     -0.2867
    100  CB       -28.3250   15.8380  -26.4750 C.3   184  GLN184      0.0367
    101  CG       -29.0830   17.0900  -26.0210 C.3   184  GLN184      0.0905
    102  CD       -30.3240   16.7560  -25.1920 C.2   184  GLN184      0.2608
    103  OE1      -30.3500   15.7680  -24.4510 O.2   184  GLN184     -0.2717
    104  NE2      -31.3550   17.5830  -25.3130 N.am  184  GLN184     -0.0878
    105  N        -34.4150   15.1890  -25.4640 N.3   210  SER210     -0.1217
    106  CA       -34.8020   15.2580  -24.0630 C.3   210  SER210      0.1889
    107  C        -35.9750   14.3530  -23.7220 C.2   210  SER210      0.2288
    108  O        -36.0940   13.9430  -22.5630 O.2   210  SER210     -0.2866
    109  CB       -35.1330   16.6970  -23.6820 C.3   210  SER210      0.2089
    110  OG       -33.9820   17.5220  -23.8520 O.3   210  SER210     -0.2183
    111  N        -33.6540    7.2570  -20.7800 N.3   214  ALA214     -0.1245
    112  CA       -32.2380    6.9130  -20.6770 C.3   214  ALA214      0.1562
    113  C        -31.9760    5.4890  -21.1670 C.2   214  ALA214      0.2260
    114  O        -30.9370    5.2160  -21.7750 O.2   214  ALA214     -0.2867
    115  CB       -31.7800    7.0800  -19.2290 C.3   214  ALA214      0.0290
    116  N        -30.5110    3.6870  -24.8340 N.3   217  ARG217     -0.1245
    117  CA       -29.1660    3.2840  -25.2250 C.3   217  ARG217      0.1563
    118  C        -28.9570    1.7920  -24.9850 C.2   217  ARG217      0.2260
    119  O        -28.5140    1.0560  -25.8810 O.2   217  ARG217     -0.2867
    120  CB       -28.1390    4.1230  -24.4620 C.3   217  ARG217      0.0307
    121  CG       -28.2470    5.6270  -24.7730 C.3   217  ARG217      0.0489
    122  CD       -27.5840    6.4890  -23.7090 C.3   217  ARG217      0.2205
    123  NE       -28.2150    6.2980  -22.4100 N.pl3 217  ARG217     -0.0865
    124  CZ       -27.8350    6.8930  -21.2850 C.cat 217  ARG217      0.5346
    125  NH1      -28.4730    6.6300  -20.1510 N.pl3 217  ARG217      0.1354
    126  NH2      -26.8190    7.7490  -21.2870 N.pl3 217  ARG217      0.1354
@<TRIPOS>BOND
     1    99    98    2
     2    96    97    1
     3    98    97    1
     4    97   100    1
     5   100   101    1
     6   101   102    1
     7   119   118    2
     8   105   106    1
     9   104   102   am
    10   117   118    1
    11   117   116    1
    12   117   120    1
    13   102   103    2
    14   121   120    1
    15   121   122    1
    16   106   107    1
    17   106   109    1
    18   110   109    1
    19   107   108    2
    20   122   123    1
    21    85    86   ar
    22    85    83   ar
    23    94    93    2
    24    88    86   ar
    25    88    90   ar
    26    86    84   ar
    27    83    82   ar
    28    76    75    2
    29    93    92    1
    30   123   124    2
    31    90    89   ar
    32    92    91    1
    33    92    95    1
    34    82    84   ar
    35    82    81    1
    36    84    87   ar
    37    52    51    2
    38   114   113    2
    39    78    79    1
    40    78    81    1
    41    78    77    1
    42     1     2    1
    43    89    87   ar
    44    79    80    2
    45    75    77   am
    46    75    74    1
    47   126   124    1
    48   124   125    1
    49   113   112    1
    50    51    50    1
    51     5     2    1
    52    38    37    2
    53    60    59    2
    54    73    74    1
    55    73    68   am
    56   111   112    1
    57   112   115    1
    58     2     3    1
    59    37    49   am
    60    37    36    1
    61    50    49    1
    62    50    53    1
    63    67    68    1
    64    67    70    1
    65    67    66    1
    66    68    69    2
    67    72    70    1
    68    36    35    1
    69    36    39    1
    70    59    66   am
    71    59    58    1
    72    70    71    1
    73     3     4    2
    74     3     6   am
    75    57    58    1
    76    55    54    1
    77     6     7    1
    78    39    40    1
    79    53    54    1
    80    58    61    1
    81    54    56    1
    82    61    62    1
    83     8     7    1
    84     8     9    2
    85     7    10    1
    86    62    63    1
    87    40    41   ar
    88    40    42   ar
    89    41    43   ar
    90    10    11    1
    91    42    45   ar
    92    42    44   ar
    93    12    13    1
    94    63    64    1
    95    65    64    1
    96    45    47   ar
    97    43    44   ar
    98    44    46   ar
    99    13    14    1
   100    13    16    1
   101    14    15    2
   102    47    48   ar
   103    16    17    1
   104    17    18    1
   105    46    48   ar
   106    18    19    1
   107    19    20    1
   108    33    34    1
   109    33    30    1
   110    24    23    2
   111    23    29   am
   112    23    22    1
   113    30    29    1
   114    30    31    1
   115    21    22    1
   116    22    25    1
   117    32    31    2
   118    25    26    1
   119    28    26    1
   120    26    27    1
