@<TRIPOS>MOLECULE
tmp/6n7fD01.pdb
 78 78 0 0 0
SMALL
GASTEIGER

@<TRIPOS>ATOM
      1  N        -35.9080    6.5360  -68.2110 N.3   376  PHE376     -0.1227
      2  CA       -36.9830    5.7840  -67.5200 C.3   376  PHE376      0.1736
      3  C        -37.2620    6.4360  -66.1670 C.2   376  PHE376      0.2596
      4  O        -36.5230    7.3720  -65.7750 O.2   376  PHE376     -0.2718
      5  CB       -36.5830    4.3150  -67.3620 C.3   376  PHE376      0.0547
      6  CG       -35.3160    4.0940  -66.5760 C.ar  376  PHE376     -0.0202
      7  CD1      -34.0780    4.2480  -67.1750 C.ar  376  PHE376     -0.0042
      8  CD2      -35.3610    3.7520  -65.2350 C.ar  376  PHE376     -0.0042
      9  CE1      -32.9110    4.0670  -66.4500 C.ar  376  PHE376     -0.0003
     10  CE2      -34.1930    3.5630  -64.5090 C.ar  376  PHE376     -0.0003
     11  CZ       -32.9690    3.7340  -65.1130 C.ar  376  PHE376     -0.0000
     12  N        -38.3230    5.9800  -65.5030 N.am  377  THR377     -0.1939
     13  CA       -38.6660    6.5230  -64.1660 C.3   377  THR377      0.2028
     14  C        -38.2970    5.4590  -63.1340 C.2   377  THR377      0.2643
     15  O        -38.5940    4.3050  -63.3710 O.2   377  THR377     -0.2714
     16  CB       -40.1400    6.9410  -64.0670 C.3   377  THR377      0.1808
     17  OG1      -40.3990    7.9830  -65.0080 O.3   377  THR377     -0.2208
     18  CG2      -40.5030    7.4460  -62.6890 C.3   377  THR377      0.0379
     19  N        -37.5950    5.8460  -62.0770 N.am  378  SER378     -0.1935
     20  CA       -37.2740    4.8750  -61.0030 C.3   378  SER378      0.2055
     21  C        -38.5800    4.3080  -60.4270 C.2   378  SER378      0.2642
     22  O        -39.5030    5.1080  -60.1570 O.2   378  SER378     -0.2714
     23  CB       -36.4280    5.5380  -59.9600 C.3   378  SER378      0.2130
     24  OG       -37.0100    6.7770  -59.5860 O.3   378  SER378     -0.2179
     25  N        -38.6530    2.9830  -60.2500 N.am  379  MET379     -0.1976
     26  CA       -39.8730    2.3260  -59.7160 C.3   379  MET379      0.1605
     27  C        -40.2500    2.9210  -58.3520 C.2   379  MET379      0.2287
     28  O        -41.4670    3.0820  -58.0700 O.2   379  MET379     -0.2864
     29  CB       -39.6660    0.8140  -59.5440 C.3   379  MET379      0.0413
     30  CG       -40.9250    0.0900  -59.0880 C.3   379  MET379      0.0598
     31  SD       -40.6770   -1.7010  -58.7790 S.3   379  MET379     -0.1393
     32  CE       -39.9620   -2.2040  -60.3410 C.3   379  MET379      0.0692
     33  N        -33.1640   -7.9580  -62.3900 N.3   440  HIS440     -0.1227
     34  CA       -34.4970   -7.3020  -62.3920 C.3   440  HIS440      0.1737
     35  C        -35.2520   -7.5680  -61.1020 C.2   440  HIS440      0.2438
     36  O        -35.1970   -8.6730  -60.5830 O.2   440  HIS440     -0.2733
     37  CB       -35.2770   -7.8460  -63.5910 C.3   440  HIS440      0.0758
     38  CG       -36.6180   -7.2460  -63.8160 C.ar  440  HIS440      0.0818
     39  ND1      -36.7760   -5.9520  -64.3020 N.ar  440  HIS440     -0.2268
     40  CD2      -37.8550   -7.7810  -63.7230 C.ar  440  HIS440      0.1154
     41  CE1      -38.0570   -5.7060  -64.4530 C.ar  440  HIS440      0.1986
     42  NE2      -38.7410   -6.8200  -64.1230 N.ar  440  HIS440     -0.2212
     43  N        -35.9640   -6.5740  -60.5310 N.am  441  PRO441     -0.2718
     44  CA       -35.9670   -5.2010  -61.0190 C.3   441  PRO441      0.1535
     45  C        -34.9740   -4.3090  -60.2610 C.2   441  PRO441      0.2599
     46  O        -34.9810   -4.3070  -59.0330 O.2   441  PRO441     -0.2715
     47  CB       -37.3880   -4.6960  -60.7540 C.3   441  PRO441      0.0310
     48  CG       -38.0530   -5.7760  -59.9170 C.3   441  PRO441      0.0237
     49  CD       -36.9780   -6.7580  -59.4930 C.3   441  PRO441      0.0939
     50  N        -34.1510   -3.5950  -61.0260 N.am  442  THR442     -0.1937
     51  CA       -33.1510   -2.6230  -60.5190 C.3   442  THR442      0.2028
     52  C        -32.9930   -1.5020  -61.5480 C.2   442  THR442      0.2642
     53  O        -33.4080   -1.7020  -62.7060 O.2   442  THR442     -0.2714
     54  CB       -31.7670   -3.2560  -60.3280 C.3   442  THR442      0.1808
     55  OG1      -31.2550   -3.5960  -61.6230 O.3   442  THR442     -0.2208
     56  CG2      -31.8000   -4.4730  -59.4310 C.3   442  THR442      0.0379
     57  N        -32.4580   -0.3620  -61.1200 N.am  443  GLY443     -0.1954
     58  CA       -32.1380    0.7030  -62.0790 C.3   443  GLY443      0.1869
     59  C        -30.8860    0.3180  -62.8500 C.2   443  GLY443      0.2309
     60  O        -30.8270    0.5860  -64.0600 O.2   443  GLY443     -0.2863
     61  N        -29.9360   -2.3380  -64.2420 N.3   445  GLU445     -0.1231
     62  CA       -30.0850   -3.2030  -65.4490 C.3   445  GLU445      0.1699
     63  C        -30.1800   -2.3490  -66.7100 C.2   445  GLU445      0.2592
     64  O        -29.8170   -2.8590  -67.7660 O.2   445  GLU445     -0.2718
     65  CB       -31.3150   -4.1100  -65.3910 C.3   445  GLU445      0.0402
     66  CG       -32.6420   -3.3900  -65.2930 C.3   445  GLU445      0.1161
     67  CD       -33.8500   -4.3160  -65.2200 C.2   445  GLU445      0.3649
     68  OE1      -34.0330   -5.1150  -66.1530 O.co2 445  GLU445     -0.2457
     69  OE2      -34.5930   -4.2610  -64.2130 O.co2 445  GLU445     -0.2457
     70  N        -30.6310   -1.0940  -66.5880 N.am  446  GLU446     -0.1979
     71  CA       -30.7990   -0.2150  -67.7770 C.3   446  GLU446      0.1602
     72  C        -29.4310    0.0530  -68.4280 C.2   446  GLU446      0.2287
     73  O        -29.4120    0.3220  -69.6210 O.2   446  GLU446     -0.2864
     74  CB       -31.5680    1.0480  -67.3850 C.3   446  GLU446      0.0415
     75  CG       -33.0270    0.7890  -67.0540 C.3   446  GLU446      0.1163
     76  CD       -33.9220    0.3920  -68.2170 C.2   446  GLU446      0.3649
     77  OE1      -33.5790    0.7010  -69.3880 O.co2 446  GLU446     -0.2457
     78  OE2      -34.9680   -0.2220  -67.9520 O.co2 446  GLU446     -0.2457
@<TRIPOS>BOND
     1    73    72    2
     2    77    76   ar
     3    72    71    1
     4    76    78   ar
     5    76    75    1
     6     1     2    1
     7    71    74    1
     8    71    70    1
     9    64    63    2
    10     2     5    1
    11     2     3    1
    12    74    75    1
    13     5     6    1
    14     7     6   ar
    15     7     9   ar
    16    63    70   am
    17    63    62    1
    18     6     8   ar
    19     9    11   ar
    20     3     4    2
    21     3    12   am
    22    68    67   ar
    23    12    13    1
    24    62    65    1
    25    62    61    1
    26    65    66    1
    27    66    67    1
    28     8    10   ar
    29    67    69   ar
    30    11    10   ar
    31    17    16    1
    32    41    39   ar
    33    41    42   ar
    34    39    38   ar
    35    13    16    1
    36    13    14    1
    37    42    40   ar
    38    16    18    1
    39    60    59    2
    40    38    40   ar
    41    38    37    1
    42    37    34    1
    43    15    14    2
    44    14    19   am
    45    59    58    1
    46    53    52    2
    47    34    33    1
    48    34    35    1
    49    58    57    1
    50    19    20    1
    51    55    54    1
    52    52    57   am
    53    52    51    1
    54    35    36    2
    55    35    43   am
    56    50    51    1
    57    50    45   am
    58    44    47    1
    59    44    43    1
    60    44    45    1
    61    20    21    1
    62    20    23    1
    63    47    48    1
    64    43    49    1
    65    51    54    1
    66    21    25   am
    67    21    22    2
    68    32    31    1
    69    54    56    1
    70    45    46    2
    71    25    26    1
    72    23    24    1
    73    48    49    1
    74    26    29    1
    75    26    27    1
    76    29    30    1
    77    30    31    1
    78    27    28    2
