@<TRIPOS>MOLECULE
tmp/6n7wA00.pdb
 157 152 0 0 0
SMALL
GASTEIGER

@<TRIPOS>ATOM
      1  N        208.1740  183.3070  229.3670 N.3   427  ARG427     -0.1245
      2  CA       209.1060  183.3540  230.4850 C.3   427  ARG427      0.1563
      3  C        208.5740  184.2830  231.5680 C.2   427  ARG427      0.2260
      4  O        208.1280  185.3980  231.2790 O.2   427  ARG427     -0.2867
      5  CB       210.4830  183.8150  230.0100 C.3   427  ARG427      0.0307
      6  CG       211.5380  183.8480  231.1010 C.3   427  ARG427      0.0489
      7  CD       212.9090  184.2110  230.5600 C.3   427  ARG427      0.2205
      8  NE       213.4930  183.1470  229.7510 N.pl3 427  ARG427     -0.0865
      9  CZ       214.6180  183.2760  229.0550 C.cat 427  ARG427      0.5346
     10  NH1      215.2780  184.4250  229.0680 N.pl3 427  ARG427      0.1354
     11  NH2      215.0820  182.2580  228.3450 N.pl3 427  ARG427      0.1354
     12  N        220.1270  173.2770  239.2690 N.3   473  ASP473     -0.1225
     13  CA       220.2010  174.0200  238.0210 C.3   473  ASP473      0.1805
     14  C        220.3350  173.0450  236.8580 C.2   473  ASP473      0.2598
     15  O        220.8130  171.9190  237.0220 O.2   473  ASP473     -0.2718
     16  CB       221.3910  175.0010  238.0450 C.3   473  ASP473      0.1424
     17  CG       221.3560  176.0270  236.9120 C.2   473  ASP473      0.3668
     18  OD1      220.4410  175.9970  236.0580 O.co2 473  ASP473     -0.2456
     19  OD2      222.2660  176.8820  236.8830 O.co2 473  ASP473     -0.2456
     20  N        219.9010  173.4880  235.6820 N.am  474  ALA474     -0.1966
     21  CA       220.0550  172.7390  234.4450 C.3   474  ALA474      0.1728
     22  C        221.0910  173.4180  233.5590 C.2   474  ALA474      0.2617
     23  O        221.2430  174.6430  233.5810 O.2   474  ALA474     -0.2715
     24  CB       218.7240  172.6210  233.6990 C.3   474  ALA474      0.0334
     25  N        221.8040  172.6110  232.7760 N.am  475  SER475     -0.1936
     26  CA       222.8900  173.0910  231.9330 C.3   475  SER475      0.2055
     27  C        222.6120  172.7610  230.4740 C.2   475  SER475      0.2644
     28  O        222.2250  171.6350  230.1450 O.2   475  SER475     -0.2714
     29  CB       224.2290  172.4790  232.3590 C.3   475  SER475      0.2130
     30  OG       224.5850  172.8920  233.6670 O.3   475  SER475     -0.2179
     31  N        222.8170  173.7460  229.6050 N.am  476  GLY476     -0.1939
     32  CA       222.6180  173.5600  228.1770 C.3   476  GLY476      0.2014
     33  C        221.1710  173.3930  227.7670 C.2   476  GLY476      0.2639
     34  O        220.8760  172.5720  226.8860 O.2   476  GLY476     -0.2714
     35  N        220.2680  174.1700  228.3760 N.am  477  LEU477     -0.1963
     36  CA       218.8290  174.0020  228.1770 C.3   477  LEU477      0.1728
     37  C        218.4200  174.2710  226.7330 C.2   477  LEU477      0.2616
     38  O        217.9470  173.3710  226.0290 O.2   477  LEU477     -0.2715
     39  CB       218.0660  174.9260  229.1250 C.3   477  LEU477      0.0311
     40  CG       216.5440  174.8720  229.0010 C.3   477  LEU477      0.0022
     41  CD1      216.0320  173.4850  229.3440 C.3   477  LEU477      0.0001
     42  CD2      215.8970  175.9240  229.8850 C.3   477  LEU477      0.0001
     43  N        218.6180  175.5210  226.3040 N.am  478  GLU478     -0.1977
     44  CA       218.2610  175.9670  224.9300 C.3   478  GLU478      0.1602
     45  C        219.0790  175.1880  223.8950 C.2   478  GLU478      0.2287
     46  O        218.5270  174.8900  222.8170 O.2   478  GLU478     -0.2864
     47  CB       218.4870  177.4730  224.7840 C.3   478  GLU478      0.0415
     48  CG       217.2490  178.2300  224.3400 C.3   478  GLU478      0.1163
     49  CD       216.5210  178.9620  225.4550 C.2   478  GLU478      0.3649
     50  OE1      216.0030  178.2860  226.3650 O.co2 478  GLU478     -0.2457
     51  OE2      216.4750  180.2080  225.4090 O.co2 478  GLU478     -0.2457
     52  N        229.6580  174.1750  226.7820 N.3   504  HIS504     -0.1241
     53  CA       230.1950  175.5250  226.9140 C.3   504  HIS504      0.1621
     54  C        231.7010  175.4980  227.1310 C.2   504  HIS504      0.2264
     55  O        232.4220  176.3510  226.6040 O.2   504  HIS504     -0.2867
     56  CB       229.4950  176.2620  228.0530 C.3   504  HIS504      0.0745
     57  CG       228.0340  176.4780  227.8190 C.ar  504  HIS504      0.0817
     58  ND1      227.5560  177.3780  226.8910 N.ar  504  HIS504     -0.2268
     59  CD2      226.9450  175.9190  228.3970 C.ar  504  HIS504      0.1154
     60  CE1      226.2350  177.3620  226.9060 C.ar  504  HIS504      0.1986
     61  NE2      225.8390  176.4840  227.8100 N.ar  504  HIS504     -0.2212
     62  N        234.0470  180.8170  231.1850 N.3   516  ARG516     -0.1231
     63  CA       232.9340  179.9880  230.7340 C.3   516  ARG516      0.1694
     64  C        231.6790  180.8180  230.4970 C.2   516  ARG516      0.2592
     65  O        230.9320  180.5610  229.5470 O.2   516  ARG516     -0.2718
     66  CB       232.6610  178.8850  231.7590 C.3   516  ARG516      0.0321
     67  CG       231.5740  177.9010  231.3560 C.3   516  ARG516      0.0489
     68  CD       231.3580  176.8430  232.4220 C.3   516  ARG516      0.2205
     69  NE       230.3250  175.8860  232.0360 N.pl3 516  ARG516     -0.0865
     70  CZ       229.0300  176.0460  232.2870 C.cat 516  ARG516      0.5346
     71  NH1      228.6040  177.1290  232.9210 N.pl3 516  ARG516      0.1354
     72  NH2      228.1590  175.1240  231.9010 N.pl3 516  ARG516      0.1354
     73  N        231.4330  181.8250  231.3360 N.am  517  ASP517     -0.1974
     74  CA       230.2650  182.6720  231.1220 C.3   517  ASP517      0.1709
     75  C        230.4550  183.6000  229.9300 C.2   517  ASP517      0.2293
     76  O        229.4750  183.9500  229.2620 O.2   517  ASP517     -0.2864
     77  CB       229.9440  183.4640  232.3870 C.3   517  ASP517      0.1436
     78  CG       229.3270  182.5980  233.4670 C.2   517  ASP517      0.3671
     79  OD1      228.6580  181.6030  233.1180 O.co2 517  ASP517     -0.2456
     80  OD2      229.5020  182.9070  234.6620 O.co2 517  ASP517     -0.2456
     81  N        229.5000  181.3530  227.1920 N.3   520  LYS520     -0.1231
     82  CA       228.0410  181.2570  227.1490 C.3   520  LYS520      0.1693
     83  C        227.4300  182.4760  226.4720 C.2   520  LYS520      0.2592
     84  O        226.5290  182.3460  225.6320 O.2   520  LYS520     -0.2718
     85  CB       227.4770  181.1110  228.5640 C.3   520  LYS520      0.0285
     86  CG       227.7400  179.7770  229.2340 C.3   520  LYS520      0.0035
     87  CD       227.2530  179.7860  230.6740 C.3   520  LYS520      0.0206
     88  CE       225.7360  179.8280  230.7360 C.3   520  LYS520      0.1093
     89  NZ       225.2210  179.7240  232.1290 N.3   520  LYS520     -0.1314
     90  N        227.9170  183.6680  226.8340 N.am  521  THR521     -0.1953
     91  CA       227.4590  184.9100  226.2200 C.3   521  THR521      0.1897
     92  C        227.7480  184.9270  224.7240 C.2   521  THR521      0.2313
     93  O        226.8910  185.3210  223.9210 O.2   521  THR521     -0.2863
     94  CB       228.1330  186.0940  226.9170 C.3   521  THR521      0.1794
     95  OG1      227.8400  186.0510  228.3190 O.3   521  THR521     -0.2208
     96  CG2      227.6430  187.4150  226.3550 C.3   521  THR521      0.0378
     97  N        225.4870  182.3250  222.8720 N.3   524  TYR524     -0.1241
     98  CA       224.1110  182.8030  222.8000 C.3   524  TYR524      0.1605
     99  C        223.9800  183.9500  221.8040 C.2   524  TYR524      0.2264
    100  O        222.9910  184.0230  221.0620 O.2   524  TYR524     -0.2867
    101  CB       223.6310  183.2190  224.1900 C.3   524  TYR524      0.0534
    102  CG       223.4230  182.0620  225.1450 C.ar  524  TYR524     -0.0201
    103  CD1      223.2530  180.7630  224.6750 C.ar  524  TYR524     -0.0009
    104  CD2      223.4200  182.2660  226.5210 C.ar  524  TYR524     -0.0009
    105  CE1      223.0690  179.7050  225.5460 C.ar  524  TYR524      0.0417
    106  CE2      223.2430  181.2120  227.4000 C.ar  524  TYR524      0.0417
    107  CZ       223.0640  179.9360  226.9060 C.ar  524  TYR524      0.1957
    108  OH       222.8840  178.8860  227.7770 O.3   524  TYR524     -0.2866
    109  N        221.4700  183.7500  218.5450 N.3   528  TYR528     -0.1241
    110  CA       220.3640  184.6520  218.2610 C.3   528  TYR528      0.1605
    111  C        220.7000  185.7060  217.2120 C.2   528  TYR528      0.2264
    112  O        219.9580  186.6830  217.0760 O.2   528  TYR528     -0.2867
    113  CB       219.8800  185.3140  219.5500 C.3   528  TYR528      0.0534
    114  CG       219.2460  184.3250  220.4990 C.ar  528  TYR528     -0.0201
    115  CD1      217.9790  183.8220  220.2560 C.ar  528  TYR528     -0.0009
    116  CD2      219.9110  183.9000  221.6400 C.ar  528  TYR528     -0.0009
    117  CE1      217.4040  182.9140  221.1150 C.ar  528  TYR528      0.0417
    118  CE2      219.3390  182.9970  222.5080 C.ar  528  TYR528      0.0417
    119  CZ       218.0820  182.5110  222.2380 C.ar  528  TYR528      0.1957
    120  OH       217.4930  181.6130  223.0890 O.3   528  TYR528     -0.2866
    121  N        215.0370  181.8490  237.1270 N.3   651  HIS651     -0.1226
    122  CA       215.1450  181.2970  235.7790 C.3   651  HIS651      0.1752
    123  C        215.8850  179.9780  235.9180 C.2   651  HIS651      0.2596
    124  O        216.8500  179.9140  236.6850 O.2   651  HIS651     -0.2718
    125  CB       215.9120  182.2100  234.8060 C.3   651  HIS651      0.0759
    126  CG       215.2800  183.5470  234.5760 C.ar  651  HIS651      0.0818
    127  ND1      214.1080  183.7080  233.8700 N.ar  651  HIS651     -0.2268
    128  CD2      215.6590  184.7870  234.9640 C.ar  651  HIS651      0.1154
    129  CE1      213.7890  184.9900  233.8380 C.ar  651  HIS651      0.1986
    130  NE2      214.7160  185.6660  234.4900 N.ar  651  HIS651     -0.2212
    131  N        215.3510  178.9250  235.2780 N.am  652  ASP652     -0.1974
    132  CA       215.8660  177.5570  235.0890 C.3   652  ASP652      0.1709
    133  C        216.6090  176.9570  236.2840 C.2   652  ASP652      0.2293
    134  O        217.5000  176.1180  236.1130 O.2   652  ASP652     -0.2864
    135  CB       216.7880  177.5300  233.8680 C.3   652  ASP652      0.1436
    136  CG       217.9870  178.4440  234.0250 C.2   652  ASP652      0.3671
    137  OD1      217.7970  179.6770  234.0630 O.co2 652  ASP652     -0.2456
    138  OD2      219.1580  178.0180  234.1180 O.co2 652  ASP652     -0.2456
    139  N        221.7380  169.5400  237.8440 N.3   691  GLU691     -0.1245
    140  CA       222.9050  169.6370  238.7130 C.3   691  GLU691      0.1567
    141  C        222.4640  170.2410  240.0340 C.2   691  GLU691      0.2260
    142  O        222.0660  171.4080  240.0790 O.2   691  GLU691     -0.2867
    143  CB       224.0040  170.4830  238.0700 C.3   691  GLU691      0.0388
    144  CG       225.2810  170.5610  238.8880 C.3   691  GLU691      0.1160
    145  CD       226.3680  171.3580  238.1960 C.2   691  GLU691      0.3649
    146  OE1      226.1180  171.8660  237.0820 O.co2 691  GLU691     -0.2457
    147  OE2      227.4730  171.4770  238.7650 O.co2 691  GLU691     -0.2457
    148  N        225.3770  178.1200  244.3030 N.3   702  HIS702     -0.1241
    149  CA       225.6190  178.5570  242.9340 C.3   702  HIS702      0.1621
    150  C        227.0220  179.1360  242.7940 C.2   702  HIS702      0.2264
    151  O        227.5520  179.7400  243.7260 O.2   702  HIS702     -0.2867
    152  CB       224.5800  179.5890  242.5000 C.3   702  HIS702      0.0745
    153  CG       224.7290  180.0300  241.0780 C.ar  702  HIS702      0.0817
    154  ND1      224.3680  179.2350  240.0120 N.ar  702  HIS702     -0.2268
    155  CD2      225.2080  181.1790  240.5450 C.ar  702  HIS702      0.1154
    156  CE1      224.6130  179.8770  238.8830 C.ar  702  HIS702      0.1986
    157  NE2      225.1230  181.0580  239.1790 N.ar  702  HIS702     -0.2212
@<TRIPOS>BOND
     1   112   111    2
     2   111   110    1
     3   110   109    1
     4   110   113    1
     5   113   114    1
     6   115   114   ar
     7   115   117   ar
     8   114   116   ar
     9   100    99    2
    10   117   119   ar
    11   116   118   ar
    12    99    98    1
    13   119   118   ar
    14   119   120    1
    15    98    97    1
    16    98   101    1
    17    46    45    2
    18    45    44    1
    19    93    92    2
    20   101   102    1
    21    48    47    1
    22    48    49    1
    23   103   102   ar
    24   103   105   ar
    25    92    91    1
    26    47    44    1
    27    44    43    1
    28   102   104   ar
    29    51    49   ar
    30    49    50   ar
    31   105   107   ar
    32    84    83    2
    33    38    37    2
    34    91    90    1
    35    91    94    1
    36    43    37   am
    37    96    94    1
    38    83    90   am
    39    83    82    1
    40   104   106   ar
    41    55    54    2
    42    37    36    1
    43    52    53    1
    44    34    33    2
    45    58    60   ar
    46    58    57   ar
    47    60    61   ar
    48   107   106   ar
    49   107   108    1
    50    53    54    1
    51    53    56    1
    52    94    95    1
    53    82    81    1
    54    82    85    1
    55    33    32    1
    56    33    35   am
    57    61    59   ar
    58    57    56    1
    59    57    59   ar
    60    36    35    1
    61    36    39    1
    62    32    31    1
    63    11     9    1
    64    85    86    1
    65    40    39    1
    66    40    41    1
    67    40    42    1
    68     9    10    1
    69     9     8    2
    70    86    87    1
    71    76    75    2
    72     1     2    1
    73    65    64    2
    74    31    27   am
    75     8     7    1
    76    75    74    1
    77     5     2    1
    78     5     6    1
    79    28    27    2
    80    27    26    1
    81     2     3    1
    82    64    63    1
    83    64    73   am
    84     7     6    1
    85    87    88    1
    86    63    62    1
    87    63    66    1
    88    88    89    1
    89    74    73    1
    90    74    77    1
    91     4     3    2
    92    67    66    1
    93    67    68    1
    94    72    70    1
    95    26    29    1
    96    26    25    1
    97    69    70    2
    98    69    68    1
    99    70    71    1
   100    29    30    1
   101    77    78    1
   102    25    22   am
   103    79    78   ar
   104    78    80   ar
   105    22    23    2
   106    22    21    1
   107    24    21    1
   108   129   127   ar
   109   129   130   ar
   110   135   136    1
   111   135   132    1
   112   127   126   ar
   113   136   137   ar
   114   136   138   ar
   115    21    20    1
   116   130   128   ar
   117   126   125    1
   118   126   128   ar
   119   125   122    1
   120   132   131    1
   121   132   133    1
   122   131   123   am
   123    20    14   am
   124   122   123    1
   125   122   121    1
   126   123   124    2
   127    18    17   ar
   128   134   133    2
   129    14    15    2
   130    14    13    1
   131    19    17   ar
   132    17    16    1
   133   146   145   ar
   134   139   140    1
   135    13    16    1
   136    13    12    1
   137   143   140    1
   138   143   144    1
   139   145   147   ar
   140   145   144    1
   141   140   141    1
   142   156   157   ar
   143   156   154   ar
   144   157   155   ar
   145   154   153   ar
   146   141   142    2
   147   155   153   ar
   148   153   152    1
   149   152   149    1
   150   150   149    1
   151   150   151    2
   152   149   148    1
