@<TRIPOS>MOLECULE
tmp/6n8gA00.pdb
 216 205 0 0 0
SMALL
GASTEIGER

@<TRIPOS>ATOM
      1  N        150.5910    6.9590    6.2470 N.3    22  ILE22      -0.1245
      2  CA       150.4050    5.5320    6.5110 C.3    22  ILE22       0.1561
      3  C        149.6530    5.3490    7.8270 C.2    22  ILE22       0.2260
      4  O        148.7390    4.5410    7.8870 O.2    22  ILE22      -0.2867
      5  CB       151.7310    4.6570    6.4470 C.3    22  ILE22       0.0252
      6  CG1      152.8790    5.2490    7.2550 C.3    22  ILE22       0.0019
      7  CG2      152.2570    4.4470    5.0070 C.3    22  ILE22       0.0019
      8  CD1      154.0620    4.2880    7.4550 C.3    22  ILE22       0.0001
      9  N        154.6370    8.0620    3.2780 N.3    29  MET29      -0.1230
     10  CA       155.6100    7.8540    4.3380 C.3    29  MET29       0.1702
     11  C        156.2810    9.1350    4.7030 C.2    29  MET29       0.2593
     12  O        156.7110    9.3020    5.8460 O.2    29  MET29      -0.2718
     13  CB       156.6460    6.8130    3.8780 C.3    29  MET29       0.0401
     14  CG       156.0150    5.4640    3.8340 C.3    29  MET29       0.0596
     15  SD       157.1180    4.0780    3.7980 S.3    29  MET29      -0.1393
     16  CE       158.1300    4.5070    2.3630 C.3    29  MET29       0.0692
     17  N        156.4430   10.0250    3.7600 N.am   30  GLY30      -0.1942
     18  CA       156.9120   11.3420    4.1480 C.3    30  GLY30       0.2014
     19  C        157.1250   12.1000    2.9150 C.2    30  GLY30       0.2639
     20  O        156.7290   11.6600    1.8650 O.2    30  GLY30      -0.2714
     21  N        157.7010   13.2770    3.0070 N.am   31  GLU31      -0.1963
     22  CA       157.9600   14.1070    1.8190 C.3    31  GLU31       0.1733
     23  C        159.4360   14.4220    1.8540 C.2    31  GLU31       0.2617
     24  O        160.0340   14.5740    2.9510 O.2    31  GLU31      -0.2715
     25  CB       157.1020   15.3710    1.7300 C.3    31  GLU31       0.0429
     26  CG       156.5510   15.9220    3.0260 C.3    31  GLU31       0.1163
     27  CD       155.1820   16.5540    2.8390 C.2    31  GLU31       0.3649
     28  OE1      155.0940   17.5600    2.1130 O.co2  31  GLU31      -0.2457
     29  OE2      154.1890   16.0530    3.4120 O.co2  31  GLU31      -0.2457
     30  N        160.0090   14.4820    0.6520 N.am   32  GLY32      -0.1940
     31  CA       161.4390   14.3020    0.4470 C.3    32  GLY32       0.2014
     32  C        161.9370   15.0850   -0.7380 C.2    32  GLY32       0.2639
     33  O        161.7510   14.6570   -1.8870 O.2    32  GLY32      -0.2714
     34  N        162.5820   16.2110   -0.4150 N.am   33  GLY33      -0.1954
     35  CA       162.8680   17.3170   -1.3320 C.3    33  GLY33       0.1869
     36  C        161.6890   17.8090   -2.1740 C.2    33  GLY33       0.2309
     37  O        160.8120   18.5800   -1.7030 O.2    33  GLY33      -0.2863
     38  N        157.1350   10.4550   -0.8090 N.3    37  VAL37      -0.1245
     39  CA       157.6030    9.0640   -0.7890 C.3    37  VAL37       0.1561
     40  C        156.4970    8.2000   -0.2910 C.2    37  VAL37       0.2260
     41  O        155.9890    8.4240    0.7980 O.2    37  VAL37      -0.2867
     42  CB       158.8980    8.9420    0.0460 C.3    37  VAL37       0.0252
     43  CG1      159.3820    7.4690    0.1620 C.3    37  VAL37       0.0019
     44  CG2      159.9710    9.8220   -0.6240 C.3    37  VAL37       0.0019
     45  N        154.7320    4.2210    0.3470 N.3    39  LYS39      -0.1245
     46  CA       154.9770    2.8040    0.5150 C.3    39  LYS39       0.1561
     47  C        154.2870    2.0750   -0.6190 C.2    39  LYS39       0.2260
     48  O        153.1480    2.3870   -0.9790 O.2    39  LYS39      -0.2867
     49  CB       154.3940    2.3260    1.8150 C.3    39  LYS39       0.0271
     50  CG       154.8470    0.9530    2.2860 C.3    39  LYS39       0.0035
     51  CD       154.2840    0.7530    3.6790 C.3    39  LYS39       0.0206
     52  CE       154.8940   -0.4110    4.4230 C.3    39  LYS39       0.1093
     53  NZ       154.6940   -0.2540    5.9030 N.3    39  LYS39      -0.1314
     54  N        159.9120    1.6410   -1.4450 N.3    48  ALA48      -0.1245
     55  CA       159.6050    3.0770   -1.2940 C.3    48  ALA48       0.1562
     56  C        159.5520    3.6720   -2.7090 C.2    48  ALA48       0.2260
     57  O        160.4400    3.4400   -3.5330 O.2    48  ALA48      -0.2867
     58  CB       160.6150    3.7960   -0.3960 C.3    48  ALA48       0.0290
     59  N        159.2420    7.1860   -4.6150 N.3    50  LYS50      -0.1245
     60  CA       159.1880    8.6890   -4.5560 C.3    50  LYS50       0.1565
     61  C        158.5880    9.1670   -5.8920 C.2    50  LYS50       0.2260
     62  O        159.1270    8.8520   -6.9630 O.2    50  LYS50      -0.2867
     63  CB       160.5620    9.2750   -4.3960 C.3    50  LYS50       0.0317
     64  CG       160.6020   10.8290   -4.4190 C.3    50  LYS50       0.0294
     65  CD       161.9660   11.3840   -3.9960 C.2    50  LYS50      -0.0067
     66  CE       163.1950   10.8420   -4.7210 C.2    50  LYS50       0.1012
     67  NZ       164.5590   11.1290   -4.0800 N.pl3  50  LYS50      -0.1270
     68  N        171.3150    4.5630    0.2110 N.3    79  VAL79      -0.1231
     69  CA       170.0030    4.0740   -0.3130 C.3    79  VAL79       0.1692
     70  C        170.2260    3.4160   -1.6770 C.2    79  VAL79       0.2591
     71  O        171.1100    3.8050   -2.4100 O.2    79  VAL79      -0.2718
     72  CB       169.0780    5.2560   -0.1640 C.3    79  VAL79       0.0266
     73  CG1      168.6380    5.9350   -1.3840 C.3    79  VAL79       0.0020
     74  CG2      168.1540    5.1670    1.0150 C.3    79  VAL79       0.0020
     75  N        169.4900    2.3350   -1.9150 N.am   80  GLU80      -0.1979
     76  CA       169.5290    1.5510   -3.1780 C.3    80  GLU80       0.1602
     77  C        168.2990    1.7750   -4.0750 C.2    80  GLU80       0.2287
     78  O        167.1640    1.5440   -3.6520 O.2    80  GLU80      -0.2864
     79  CB       169.6630    0.0730   -2.8730 C.3    80  GLU80       0.0415
     80  CG       169.9970   -0.6910   -4.1670 C.3    80  GLU80       0.1163
     81  CD       170.0930   -2.1880   -3.9770 C.2    80  GLU80       0.3649
     82  OE1      170.2660   -2.6140   -2.8130 O.co2  80  GLU80      -0.2457
     83  OE2      169.9410   -2.9130   -4.9910 O.co2  80  GLU80      -0.2457
     84  N        162.8040    2.4880   -4.5920 N.3    95  TYR95      -0.1227
     85  CA       163.9510    2.0830   -3.7590 C.3    95  TYR95       0.1736
     86  C        163.6330    0.9450   -2.8440 C.2    95  TYR95       0.2595
     87  O        162.4890    0.6940   -2.5620 O.2    95  TYR95      -0.2718
     88  CB       164.3260    3.2270   -2.8500 C.3    95  TYR95       0.0548
     89  CG       164.6500    4.5380   -3.5000 C.ar   95  TYR95      -0.0200
     90  CD1      163.6460    5.3990   -3.8510 C.ar   95  TYR95      -0.0009
     91  CD2      165.9400    4.9790   -3.6020 C.ar   95  TYR95      -0.0009
     92  CE1      163.9260    6.6190   -4.4230 C.ar   95  TYR95       0.0417
     93  CE2      166.2350    6.2340   -4.1380 C.ar   95  TYR95       0.0417
     94  CZ       165.2490    7.0660   -4.5350 C.ar   95  TYR95       0.1957
     95  OH       165.5630    8.3290   -5.0700 O.3    95  TYR95      -0.2866
     96  N        164.6770    0.2960   -2.3440 N.am   96  VAL96      -0.1966
     97  CA       164.5570   -0.6830   -1.2670 C.3    96  VAL96       0.1727
     98  C        164.0450    0.0750   -0.0540 C.2    96  VAL96       0.2616
     99  O        164.5930    1.1290    0.3520 O.2    96  VAL96      -0.2715
    100  CB       165.9070   -1.3870   -0.9810 C.3    96  VAL96       0.0290
    101  CG1      165.8570   -2.2940    0.2520 C.3    96  VAL96       0.0023
    102  CG2      166.3910   -2.1510   -2.2070 C.3    96  VAL96       0.0023
    103  N        162.9960   -0.4690    0.5350 N.am   97  TYR97      -0.1960
    104  CA       162.2930    0.1140    1.7040 C.3    97  TYR97       0.1771
    105  C        163.1840    0.1150    2.9240 C.2    97  TYR97       0.2619
    106  O        163.9770   -0.8290    3.1060 O.2    97  TYR97      -0.2715
    107  CB       161.1260   -0.7410    1.9870 C.3    97  TYR97       0.0574
    108  CG       160.3570   -0.4260    3.2260 C.ar   97  TYR97      -0.0198
    109  CD1      159.8350    0.8150    3.4080 C.ar   97  TYR97      -0.0009
    110  CD2      160.0440   -1.4270    4.1590 C.ar   97  TYR97      -0.0009
    111  CE1      159.0630    1.0990    4.5120 C.ar   97  TYR97       0.0417
    112  CE2      159.2530   -1.1220    5.3140 C.ar   97  TYR97       0.0417
    113  CZ       158.7720    0.1130    5.4350 C.ar   97  TYR97       0.1957
    114  OH       158.0100    0.5050    6.5020 O.3    97  TYR97      -0.2866
    115  N        163.1660    1.2010    3.6910 N.am   98  MET98      -0.1964
    116  CA       164.0110    1.2990    4.8980 C.3    98  MET98       0.1722
    117  C        163.0530    1.2510    6.0950 C.2    98  MET98       0.2458
    118  O        162.3610    2.2750    6.4450 O.2    98  MET98      -0.2730
    119  CB       164.8230    2.6150    4.8900 C.3    98  MET98       0.0427
    120  CG       165.8760    2.6120    3.8300 C.3    98  MET98       0.0599
    121  SD       167.2620    1.6470    4.2480 S.3    98  MET98      -0.1393
    122  CE       167.0950    0.2190    3.2890 C.3    98  MET98       0.0692
    123  N        162.9780    0.0840    6.7690 N.am   99  PRO99      -0.2716
    124  CA       161.8310   -0.0820    7.6810 C.3    99  PRO99       0.1536
    125  C        161.8710    0.7200    8.9430 C.2    99  PRO99       0.2599
    126  O        160.8640    0.7990    9.6380 O.2    99  PRO99      -0.2715
    127  CB       161.8320   -1.6330    8.0230 C.3    99  PRO99       0.0310
    128  CG       162.7470   -2.2350    7.1200 C.3    99  PRO99       0.0237
    129  CD       163.5730   -1.1920    6.3680 C.3    99  PRO99       0.0939
    130  N        163.0200    1.3270    9.3250 N.am  100  ASN100     -0.1959
    131  CA       163.0420    2.1820   10.4700 C.3   100  ASN100      0.1819
    132  C        163.0180    3.6850   10.1140 C.2   100  ASN100      0.2622
    133  O        163.2050    4.4800   10.9620 O.2   100  ASN100     -0.2715
    134  CB       164.2180    1.7970   11.3600 C.3   100  ASN100      0.1195
    135  CG       163.8490    0.6150   12.2890 C.2   100  ASN100      0.2630
    136  OD1      162.9220    0.7150   12.9950 O.2   100  ASN100     -0.2716
    137  ND2      164.6250   -0.4580   12.2620 N.am  100  ASN100     -0.0877
    138  N        162.6630    4.0400    8.9050 N.am  101  GLY101     -0.1940
    139  CA       162.4040    5.4390    8.5520 C.3   101  GLY101      0.2014
    140  C        163.6480    6.2960    8.6750 C.2   101  GLY101      0.2639
    141  O        164.7600    5.7960    8.4010 O.2   101  GLY101     -0.2714
    142  N        163.4660    7.5700    9.0630 N.am  102  SER102     -0.1949
    143  CA       164.5800    8.5020    9.1130 C.3   102  SER102      0.1924
    144  C        165.1630    8.6060   10.5070 C.2   102  SER102      0.2314
    145  O        164.4760    8.4080   11.4900 O.2   102  SER102     -0.2863
    146  CB       164.1440    9.8840    8.6700 C.3   102  SER102      0.2116
    147  OG       163.1990   10.4140    9.5420 O.3   102  SER102     -0.2180
    148  N        163.2250   11.0800   12.6080 N.3   105  ASP105     -0.1225
    149  CA       162.0330   10.5260   13.2240 C.3   105  ASP105      0.1805
    150  C        162.3800    9.5650   14.3740 C.2   105  ASP105      0.2597
    151  O        161.7030    9.5790   15.3990 O.2   105  ASP105     -0.2718
    152  CB       161.1890    9.8200   12.2040 C.3   105  ASP105      0.1424
    153  CG       160.4960   10.8200   11.2290 C.2   105  ASP105      0.3668
    154  OD1      160.6500   12.0630   11.4280 O.co2 105  ASP105     -0.2456
    155  OD2      159.8020   10.3240   10.3290 O.co2 105  ASP105     -0.2456
    156  N        163.4360    8.7790   14.2310 N.am  106  ARG106     -0.1979
    157  CA       163.8150    7.8990   15.3710 C.3   106  ARG106      0.1597
    158  C        164.4010    8.6780   16.5350 C.2   106  ARG106      0.2287
    159  O        164.1450    8.3560   17.7050 O.2   106  ARG106     -0.2864
    160  CB       164.7290    6.7790   14.9270 C.3   106  ARG106      0.0334
    161  CG       164.1210    5.8230   13.8710 C.3   106  ARG106      0.0492
    162  CD       162.9080    4.9750   14.3150 C.3   106  ARG106      0.2205
    163  NE       161.6810    5.7230   14.5430 N.pl3 106  ARG106     -0.0865
    164  CZ       160.8940    6.2240   13.5730 C.cat 106  ARG106      0.5346
    165  NH1      161.2210    6.1580   12.3050 N.pl3 106  ARG106      0.1354
    166  NH2      159.7780    6.8700   13.8870 N.pl3 106  ARG106      0.1354
    167  N        155.8360    8.4130   16.3900 N.3   111  ASP111     -0.1239
    168  CA       154.9110    7.2760   16.3880 C.3   111  ASP111      0.1674
    169  C        155.1050    6.2810   17.5670 C.2   111  ASP111      0.2266
    170  O        154.7090    5.1470   17.4720 O.2   111  ASP111     -0.2867
    171  CB       154.8990    6.4850   15.0920 C.3   111  ASP111      0.1410
    172  CG       154.4780    7.3390   13.8930 C.2   111  ASP111      0.3668
    173  OD1      153.6420    8.2710   14.0900 O.co2 111  ASP111     -0.2456
    174  OD2      155.0440    7.0880   12.7850 O.co2 111  ASP111     -0.2456
    175  N        158.1650    5.0910   18.7360 N.3   113  THR113     -0.1218
    176  CA       159.2120    4.0900   18.6240 C.3   113  THR113      0.1862
    177  C        160.1570    4.2320   19.8480 C.2   113  THR113      0.2287
    178  O        160.2960    5.3100   20.3770 O.2   113  THR113     -0.2866
    179  CB       159.9840    4.1860   17.2900 C.3   113  THR113      0.1770
    180  OG1      160.5070    5.4940   17.1150 O.3   113  THR113     -0.2211
    181  CG2      159.0840    3.8770   16.1200 C.3   113  THR113      0.0375
    182  N        166.8680   13.9940    8.4500 N.3   148  ALA148     -0.1231
    183  CA       165.7400   13.5700    7.5990 C.3   148  ALA148      0.1694
    184  C        166.1550   12.7780    6.3700 C.2   148  ALA148      0.2592
    185  O        165.3350   12.0730    5.7980 O.2   148  ALA148     -0.2718
    186  CB       164.9040   14.7710    7.1430 C.3   148  ALA148      0.0304
    187  N        167.4400   12.8430    6.0310 N.am  149  ASN149     -0.1974
    188  CA       168.0750   12.1910    4.8730 C.3   149  ASN149      0.1688
    189  C        168.9490   11.0200    5.2080 C.2   149  ASN149      0.2292
    190  O        169.6920   10.5670    4.3660 O.2   149  ASN149     -0.2864
    191  CB       168.9650   13.2980    4.0820 C.3   149  ASN149      0.1181
    192  CG       168.1550   13.9510    3.0690 C.2   149  ASN149      0.2629
    193  OD1      167.0800   13.4280    2.8200 O.2   149  ASN149     -0.2716
    194  ND2      168.5710   15.0890    2.5020 N.am  149  ASN149     -0.0877
    195  N        168.5010    7.3980    6.3580 N.3   151  LEU151     -0.1245
    196  CA       167.4550    6.4310    6.5710 C.3   151  LEU151      0.1561
    197  C        168.0540    5.2630    7.3620 C.2   151  LEU151      0.2260
    198  O        169.2690    5.1100    7.4890 O.2   151  LEU151     -0.2867
    199  CB       166.8170    5.9470    5.2670 C.3   151  LEU151      0.0270
    200  CG       166.3700    7.1530    4.4300 C.3   151  LEU151      0.0019
    201  CD1      165.5220    6.5840    3.3690 C.3   151  LEU151      0.0001
    202  CD2      165.5610    8.1880    5.2160 C.3   151  LEU151      0.0001
    203  N        170.4560    9.3640    1.8030 N.3   161  SER161     -0.1202
    204  CA       169.5300    9.4460    0.6390 C.3   161  SER161      0.2020
    205  C        169.4800   10.8540    0.0860 C.2   161  SER161      0.2618
    206  O        169.9200   11.7940    0.7540 O.2   161  SER161     -0.2717
    207  CB       168.1030    9.0840    1.0680 C.3   161  SER161      0.2103
    208  OG       167.5890   10.0540    1.9150 O.3   161  SER161     -0.2182
    209  N        168.8270   10.9420   -1.0730 N.am  162  ASP162     -0.1973
    210  CA       168.5160   12.1380   -1.8320 C.3   162  ASP162      0.1709
    211  C        169.7410   12.7180   -2.5520 C.2   162  ASP162      0.2293
    212  O        170.5010   13.4960   -1.9530 O.2   162  ASP162     -0.2864
    213  CB       167.8310   13.2120   -0.9780 C.3   162  ASP162      0.1436
    214  CG       167.0600   14.2220   -1.8530 C.2   162  ASP162      0.3671
    215  OD1      167.3040   14.2430   -3.0560 O.co2 162  ASP162     -0.2456
    216  OD2      166.2120   14.9620   -1.3630 O.co2 162  ASP162     -0.2456
@<TRIPOS>BOND
     1    62    61    2
     2    61    60    1
     3    95    94    1
     4    83    81   ar
     5    66    67    1
     6    66    65    2
     7    59    60    1
     8    84    85    1
     9    60    63    1
    10    94    92   ar
    11    94    93   ar
    12    92    90   ar
    13    64    63    1
    14    64    65    1
    15    80    81    1
    16    80    79    1
    17    93    91   ar
    18    77    78    2
    19    77    76    1
    20    81    82   ar
    21    90    89   ar
    22    85    88    1
    23    85    86    1
    24    91    89   ar
    25    57    56    2
    26    89    88    1
    27    76    79    1
    28    76    75    1
    29   215   214   ar
    30    86    87    2
    31    86    96   am
    32    56    55    1
    33   211   212    2
    34   211   210    1
    35    71    70    2
    36    96    97    1
    37   102   100    1
    38    36    37    2
    39    36    35    1
    40    75    70   am
    41    33    32    2
    42   214   216   ar
    43   214   213    1
    44   210   209    1
    45   210   213    1
    46    70    69    1
    47    54    55    1
    48    73    72    1
    49    35    34    1
    50    55    58    1
    51    97   100    1
    52    97    98    1
    53   209   205   am
    54   100   101    1
    55    48    47    2
    56    38    39    1
    57    39    40    1
    58    39    42    1
    59    32    34   am
    60    32    31    1
    61    44    42    1
    62    47    46    1
    63    69    72    1
    64    69    68    1
    65    40    41    2
    66    72    74    1
    67    98    99    2
    68    98   103   am
    69    42    43    1
    70   205   204    1
    71   205   206    2
    72    45    46    1
    73    31    30    1
    74    46    49    1
    75   103   104    1
    76   204   207    1
    77   204   203    1
    78    30    23   am
    79   207   208    1
    80   104   107    1
    81   104   105    1
    82    25    22    1
    83    25    26    1
    84    49    50    1
    85    22    23    1
    86    22    21    1
    87    23    24    2
    88    20    19    2
    89   107   108    1
    90    28    27   ar
    91    50    51    1
    92    16    15    1
    93   194   192   am
    94   193   192    2
    95    27    26    1
    96    27    29   ar
    97    19    21   am
    98    19    18    1
    99   105   106    2
   100   105   115   am
   101   192   191    1
   102   108   109   ar
   103   108   110   ar
   104     9    10    1
   105   122   121    1
   106   201   200    1
   107   109   111   ar
   108    51    52    1
   109   115   116    1
   110    17    18    1
   111    17    11   am
   112    15    14    1
   113   120   121    1
   114   120   119    1
   115    14    13    1
   116    13    10    1
   117   191   188    1
   118   110   112   ar
   119    10    11    1
   120   190   189    2
   121    52    53    1
   122   200   202    1
   123   200   199    1
   124   111   113   ar
   125    11    12    2
   126   188   189    1
   127   188   187    1
   128   119   116    1
   129   116   117    1
   130     7     5    1
   131   199   196    1
   132   112   113   ar
   133   113   114    1
   134   185   184    2
   135   187   184   am
   136   117   118    2
   137   117   123   am
   138     1     2    1
   139   195   196    1
   140   129   123    1
   141   129   128    1
   142   184   183    1
   143     5     2    1
   144     5     6    1
   145     2     3    1
   146   196   197    1
   147   123   124    1
   148   128   127    1
   149   186   183    1
   150     6     8    1
   151   197   198    2
   152   183   182    1
   153   124   127    1
   154   124   125    1
   155     3     4    2
   156   141   140    2
   157   139   140    1
   158   139   138    1
   159   146   143    1
   160   146   147    1
   161   140   142   am
   162   138   132   am
   163   125   130   am
   164   125   126    2
   165   142   143    1
   166   143   144    1
   167   130   131    1
   168   132   131    1
   169   132   133    2
   170   155   153   ar
   171   131   134    1
   172   144   145    2
   173   153   154   ar
   174   153   152    1
   175   134   135    1
   176   152   149    1
   177   137   135   am
   178   135   136    2
   179   165   164    1
   180   148   149    1
   181   174   172   ar
   182   149   150    1
   183   164   166    1
   184   164   163    2
   185   161   162    1
   186   161   160    1
   187   172   173   ar
   188   172   171    1
   189   156   150   am
   190   156   157    1
   191   162   163    1
   192   150   151    2
   193   160   157    1
   194   171   168    1
   195   157   158    1
   196   181   179    1
   197   168   167    1
   198   168   169    1
   199   158   159    2
   200   180   179    1
   201   179   176    1
   202   170   169    2
   203   176   175    1
   204   176   177    1
   205   177   178    2
