@<TRIPOS>MOLECULE
tmp/6n8zC00.pdb
 172 165 0 0 0
SMALL
GASTEIGER

@<TRIPOS>ATOM
      1  N        149.0980  101.9240  162.8800 N.3   164  ASP164     -0.1225
      2  CA       149.5180  100.7920  162.0860 C.3   164  ASP164      0.1790
      3  C        151.0220  100.7560  161.9520 C.2   164  ASP164      0.2440
      4  O        151.6580  101.8080  161.9130 O.2   164  ASP164     -0.2733
      5  CB       148.8640  100.8560  160.7160 C.3   164  ASP164      0.1423
      6  CG       147.4300  100.5150  160.8250 C.2   164  ASP164      0.3668
      7  OD1      147.0510  100.0980  161.8900 O.co2 164  ASP164     -0.2456
      8  OD2      146.6810  100.6740  159.8920 O.co2 164  ASP164     -0.2456
      9  N        151.6280   99.5720  161.8820 N.am  165  PRO165     -0.2718
     10  CA       153.0350   99.4000  161.7100 C.3   165  PRO165      0.1535
     11  C        153.3520   99.8800  160.3380 C.2   165  PRO165      0.2598
     12  O        152.4920   99.8410  159.4660 O.2   165  PRO165     -0.2715
     13  CB       153.2220   97.8970  161.8560 C.3   165  PRO165      0.0310
     14  CG       151.8900   97.3160  161.4630 C.3   165  PRO165      0.0237
     15  CD       150.8680   98.3230  161.9240 C.3   165  PRO165      0.0939
     16  N        154.5710  100.3140  160.1410 N.am  166  VAL166     -0.1964
     17  CA       154.9760  100.7800  158.8430 C.3   166  VAL166      0.1727
     18  C        155.9310   99.8230  158.2020 C.2   166  VAL166      0.2616
     19  O        156.8650   99.3420  158.8370 O.2   166  VAL166     -0.2715
     20  CB       155.5290  102.1900  158.9530 C.3   166  VAL166      0.0290
     21  CG1      156.0360  102.6980  157.6020 C.3   166  VAL166      0.0023
     22  CG2      154.3900  103.0480  159.4500 C.3   166  VAL166      0.0023
     23  N        155.6370   99.4940  156.9630 N.am  167  ILE167     -0.1977
     24  CA       156.3950   98.5270  156.2090 C.3   167  ILE167      0.1596
     25  C        157.0470   99.0950  154.9660 C.2   167  ILE167      0.2287
     26  O        156.4090   99.7410  154.1440 O.2   167  ILE167     -0.2864
     27  CB       155.4860   97.3610  155.8340 C.3   167  ILE167      0.0276
     28  CG1      154.9290   96.7440  157.1030 C.3   167  ILE167      0.0022
     29  CG2      156.2050   96.3410  154.9720 C.3   167  ILE167      0.0022
     30  CD1      153.5230   97.2370  157.4570 C.3   167  ILE167      0.0001
     31  N        159.6480  101.4660  152.6500 N.3   169  ARG169     -0.1245
     32  CA       159.9870  102.8780  152.5770 C.3   169  ARG169      0.1563
     33  C        161.0230  103.2900  153.5910 C.2   169  ARG169      0.2260
     34  O        161.0140  104.4090  154.1040 O.2   169  ARG169     -0.2867
     35  CB       158.7950  103.7590  152.7420 C.3   169  ARG169      0.0307
     36  CG       157.7930  103.6460  151.6970 C.3   169  ARG169      0.0489
     37  CD       156.9840  104.7870  151.7950 C.3   169  ARG169      0.2205
     38  NE       155.9600  104.8470  150.8580 N.pl3 169  ARG169     -0.0865
     39  CZ       156.1350  105.1450  149.5750 C.cat 169  ARG169      0.5346
     40  NH1      157.3100  105.3330  149.0350 N.pl3 169  ARG169      0.1354
     41  NH2      155.1120  105.2780  148.8060 N.pl3 169  ARG169      0.1354
     42  N        148.2560  111.5850  146.6850 N.3   194  PRO194     -0.2102
     43  CA       147.5040  111.1770  147.8230 C.3   194  PRO194      0.1504
     44  C        147.3570  109.6940  147.7580 C.2   194  PRO194      0.2576
     45  O        147.2550  109.1360  146.6750 O.2   194  PRO194     -0.2718
     46  CB       146.1700  111.8940  147.6110 C.3   194  PRO194      0.0282
     47  CG       146.0700  112.0960  146.1470 C.3   194  PRO194      0.0208
     48  CD       147.4730  112.2800  145.6610 C.3   194  PRO194      0.0893
     49  N        147.3330  109.0510  148.8980 N.am  195  GLY195     -0.1943
     50  CA       147.1420  107.6200  148.9280 C.3   195  GLY195      0.2014
     51  C        148.4200  106.8000  148.7630 C.2   195  GLY195      0.2639
     52  O        148.3670  105.5660  148.6970 O.2   195  GLY195     -0.2714
     53  N        149.5950  107.4390  148.7170 N.am  196  ILE196     -0.1963
     54  CA       150.7820  106.6050  148.5520 C.3   196  ILE196      0.1727
     55  C        151.4870  106.2920  149.8590 C.2   196  ILE196      0.2617
     56  O        152.5680  105.7100  149.8520 O.2   196  ILE196     -0.2715
     57  CB       151.7980  107.2270  147.6350 C.3   196  ILE196      0.0290
     58  CG1      152.3210  108.4180  148.2440 C.3   196  ILE196      0.0022
     59  CG2      151.1980  107.5030  146.3210 C.3   196  ILE196      0.0023
     60  CD1      153.4120  108.9920  147.4540 C.3   196  ILE196      0.0001
     61  N        150.9050  106.6370  150.9900 N.am  197  GLY197     -0.1940
     62  CA       151.5640  106.3000  152.2450 C.3   197  GLY197      0.2014
     63  C        152.4540  107.3940  152.8160 C.2   197  GLY197      0.2639
     64  O        153.4160  107.1040  153.5330 O.2   197  GLY197     -0.2714
     65  N        152.1720  108.6520  152.5340 N.am  198  LYS198     -0.1963
     66  CA       153.0590  109.6420  153.0950 C.3   198  LYS198      0.1728
     67  C        152.8000  109.7530  154.5780 C.2   198  LYS198      0.2617
     68  O        153.7240  109.9510  155.3690 O.2   198  LYS198     -0.2715
     69  CB       152.8840  110.9860  152.4370 C.3   198  LYS198      0.0311
     70  CG       153.2040  110.9880  150.9880 C.3   198  LYS198      0.0038
     71  CD       153.3880  112.3650  150.5250 C.3   198  LYS198      0.0206
     72  CE       152.1810  113.1950  150.7810 C.3   198  LYS198      0.1093
     73  NZ       151.0860  112.8810  149.9090 N.3   198  LYS198     -0.1314
     74  N        151.5640  109.5490  154.9910 N.am  199  THR199     -0.1937
     75  CA       151.3190  109.6210  156.4080 C.3   199  THR199      0.2028
     76  C        152.0890  108.4880  157.0480 C.2   199  THR199      0.2642
     77  O        152.6960  108.6570  158.1020 O.2   199  THR199     -0.2714
     78  CB       149.8510  109.5100  156.7450 C.3   199  THR199      0.1808
     79  OG1      149.1470  110.5720  156.1200 O.3   199  THR199     -0.2208
     80  CG2      149.6570  109.5900  158.2210 C.3   199  THR199      0.0379
     81  N        152.0700  107.3230  156.3990 N.am  200  ALA200     -0.1977
     82  CA       152.7570  106.1420  156.9050 C.3   200  ALA200      0.1597
     83  C        154.2310  106.4180  157.0720 C.2   200  ALA200      0.2287
     84  O        154.8360  105.9650  158.0300 O.2   200  ALA200     -0.2864
     85  CB       152.5620  104.9440  155.9970 C.3   200  ALA200      0.0319
     86  N        154.3650  108.1590  160.3410 N.3   203  GLU203     -0.1245
     87  CA       154.0250  107.2620  161.4270 C.3   203  GLU203      0.1567
     88  C        155.2580  106.4030  161.6760 C.2   203  GLU203      0.2260
     89  O        155.6240  106.1300  162.8180 O.2   203  GLU203     -0.2867
     90  CB       152.8690  106.3840  161.0040 C.3   203  GLU203      0.0388
     91  CG       151.5760  107.1000  160.8480 C.3   203  GLU203      0.1160
     92  CD       150.5430  106.2810  160.1100 C.2   203  GLU203      0.3649
     93  OE1      150.8840  105.2530  159.5780 O.co2 203  GLU203     -0.2457
     94  OE2      149.3920  106.6720  160.1090 O.co2 203  GLU203     -0.2457
     95  N        150.3330  117.9640  159.1670 N.3   264  ASP264     -0.1239
     96  CA       149.7870  117.3760  157.9930 C.3   264  ASP264      0.1674
     97  C        149.0650  118.4910  157.3280 C.2   264  ASP264      0.2266
     98  O        148.8550  119.5330  157.9450 O.2   264  ASP264     -0.2867
     99  CB       148.8610  116.2180  158.3190 C.3   264  ASP264      0.1410
    100  CG       148.6060  115.3230  157.1230 C.2   264  ASP264      0.3668
    101  OD1      149.0120  115.6730  156.0340 O.co2 264  ASP264     -0.2456
    102  OD2      148.0250  114.2870  157.3090 O.co2 264  ASP264     -0.2456
    103  N        153.6340  117.6270  154.8930 N.3   295  ALA295     -0.1231
    104  CA       153.0490  116.6230  154.0280 C.3   295  ALA295      0.1694
    105  C        151.9910  117.2650  153.1520 C.2   295  ALA295      0.2593
    106  O        151.1000  117.9640  153.6530 O.2   295  ALA295     -0.2718
    107  CB       152.4580  115.4880  154.8390 C.3   295  ALA295      0.0304
    108  N        152.0850  117.0090  151.8530 N.am  296  THR296     -0.1939
    109  CA       151.1260  117.5340  150.8900 C.3   296  THR296      0.2028
    110  C        151.2050  116.8930  149.4890 C.2   296  THR296      0.2642
    111  O        152.1950  116.2350  149.1500 O.2   296  THR296     -0.2714
    112  CB       151.2590  119.0350  150.8090 C.3   296  THR296      0.1808
    113  OG1      150.2810  119.5110  150.0030 O.3   296  THR296     -0.2208
    114  CG2      152.5470  119.4250  150.2710 C.3   296  THR296      0.0379
    115  N        150.1550  117.0490  148.6890 N.am  297  THR297     -0.1950
    116  CA       150.1560  116.5730  147.3080 C.3   297  THR297      0.1897
    117  C        150.8230  117.5260  146.3720 C.2   297  THR297      0.2313
    118  O        151.0440  118.6790  146.7110 O.2   297  THR297     -0.2863
    119  CB       148.7500  116.3880  146.8000 C.3   297  THR297      0.1794
    120  OG1      148.0930  117.6490  146.8250 O.3   297  THR297     -0.2208
    121  CG2      148.0270  115.4270  147.6710 C.3   297  THR297      0.0378
    122  N        153.5530   95.3330  151.9030 N.3   331  ILE331     -0.1245
    123  CA       152.8550   96.1670  152.8400 C.3   331  ILE331      0.1561
    124  C        151.5950   95.4850  153.2740 C.2   331  ILE331      0.2260
    125  O        151.2750   95.4630  154.4620 O.2   331  ILE331     -0.2867
    126  CB       152.5390   97.5270  152.2630 C.3   331  ILE331      0.0252
    127  CG1      153.8330   98.2760  152.0610 C.3   331  ILE331      0.0019
    128  CG2      151.6000   98.2680  153.2020 C.3   331  ILE331      0.0019
    129  CD1      153.6850   99.5100  151.2320 C.3   331  ILE331      0.0001
    130  N        150.2460   94.5260  157.1120 N.3   335  LEU335     -0.1245
    131  CA       149.0040   95.0070  157.6610 C.3   335  LEU335      0.1561
    132  C        147.9550   93.9340  157.7700 C.2   335  LEU335      0.2260
    133  O        146.9800   94.0800  158.5090 O.2   335  LEU335     -0.2867
    134  CB       148.4860   96.1150  156.7970 C.3   335  LEU335      0.0270
    135  CG       149.3780   97.2760  156.7250 C.3   335  LEU335      0.0019
    136  CD1      148.8020   98.2410  155.7650 C.3   335  LEU335      0.0001
    137  CD2      149.5380   97.8660  158.1150 C.3   335  LEU335      0.0001
    138  N        143.9990   93.7420  159.8450 N.3   339  TYR339     -0.1241
    139  CA       142.6950   93.5170  159.2860 C.3   339  TYR339      0.1605
    140  C        142.1100   92.2420  159.8340 C.2   339  TYR339      0.2264
    141  O        140.9360   92.2010  160.2080 O.2   339  TYR339     -0.2867
    142  CB       142.7680   93.4740  157.7840 C.3   339  TYR339      0.0534
    143  CG       143.0390   94.7790  157.2680 C.ar  339  TYR339     -0.0201
    144  CD1      142.0340   95.7000  157.2250 C.ar  339  TYR339     -0.0009
    145  CD2      144.2920   95.0920  156.8590 C.ar  339  TYR339     -0.0009
    146  CE1      142.2930   96.9480  156.7680 C.ar  339  TYR339      0.0417
    147  CE2      144.5490   96.3420  156.4000 C.ar  339  TYR339      0.0417
    148  CZ       143.5340   97.2730  156.3610 C.ar  339  TYR339      0.1957
    149  OH       143.7830   98.5380  155.9180 O.3   339  TYR339     -0.2866
    150  N        148.8440  101.8840  147.1640 N.3   369  PRO369     -0.2102
    151  CA       148.7260  101.4940  148.5570 C.3   369  PRO369      0.1504
    152  C        147.2890  101.5790  149.0100 C.2   369  PRO369      0.2575
    153  O        146.7000  100.5720  149.4140 O.2   369  PRO369     -0.2718
    154  CB       149.6520  102.4660  149.2460 C.3   369  PRO369      0.0282
    155  CG       150.6750  102.7110  148.2090 C.3   369  PRO369      0.0208
    156  CD       149.8990  102.8070  146.9020 C.3   369  PRO369      0.0893
    157  N        146.6700  102.7480  148.8650 N.am  370  ASP370     -0.1974
    158  CA       145.2640  102.7950  149.2040 C.3   370  ASP370      0.1708
    159  C        144.4170  101.7840  148.4920 C.2   370  ASP370      0.2293
    160  O        143.6110  101.0940  149.1070 O.2   370  ASP370     -0.2864
    161  CB       144.6120  104.1060  148.7870 C.3   370  ASP370      0.1436
    162  CG       143.2440  104.3280  149.1380 C.2   370  ASP370      0.3671
    163  OD1      142.6460  103.4970  149.7620 O.co2 370  ASP370     -0.2456
    164  OD2      142.7010  105.2930  148.6920 O.co2 370  ASP370     -0.2456
    165  N        144.5730   98.3080  149.7560 N.3   373  LEU373     -0.1245
    166  CA       143.9580   98.1770  151.0600 C.3   373  LEU373      0.1561
    167  C        142.4690   98.2670  150.9890 C.2   373  LEU373      0.2260
    168  O        141.7680   97.5760  151.7160 O.2   373  LEU373     -0.2867
    169  CB       144.4970   99.2220  151.9980 C.3   373  LEU373      0.0270
    170  CG       145.8880   98.9760  152.3540 C.3   373  LEU373      0.0019
    171  CD1      146.4250  100.1290  153.1130 C.3   373  LEU373      0.0001
    172  CD2      145.9260   97.7260  153.1670 C.3   373  LEU373      0.0001
@<TRIPOS>BOND
     1    48    47    1
     2    48    42    1
     3    47    46    1
     4    59    57    1
     5   117   118    2
     6   117   116    1
     7    45    44    2
     8    42    43    1
     9   119   120    1
    10   119   116    1
    11   119   121    1
    12   156   150    1
    13   156   155    1
    14   150   151    1
    15   116   115    1
    16    60    58    1
    17    46    43    1
    18    57    58    1
    19    57    54    1
    20    44    43    1
    21    44    49   am
    22   155   154    1
    23   159   160    2
    24   159   158    1
    25    54    53    1
    26    54    55    1
    27   151   152    1
    28   151   154    1
    29   115   110   am
    30   164   162   ar
    31    52    51    2
    32    53    51   am
    33    51    50    1
    34   161   162    1
    35   161   158    1
    36    41    39    1
    37   157   152   am
    38   157   158    1
    39    49    50    1
    40   152   153    2
    41    40    39    1
    42   162   163   ar
    43   111   110    2
    44   110   109    1
    45    39    38    2
    46   165   166    1
    47    56    55    2
    48    55    61   am
    49    73    72    1
    50   113   112    1
    51   114   112    1
    52    71    72    1
    53    71    70    1
    54   112   109    1
    55    38    37    1
    56   109   108    1
    57    70    69    1
    58   167   166    1
    59   167   168    2
    60    61    62    1
    61   166   169    1
    62   129   127    1
    63    36    37    1
    64    36    35    1
    65   108   105   am
    66   122   123    1
    67   169   170    1
    68   127   126    1
    69    62    63    1
    70   126   123    1
    71   126   128    1
    72   170   171    1
    73   170   172    1
    74    69    66    1
    75    65    63   am
    76    65    66    1
    77    32    31    1
    78    32    35    1
    79    32    33    1
    80    63    64    2
    81   123   124    1
    82    66    67    1
    83   105   106    2
    84   105   104    1
    85   124   125    2
    86    33    34    2
    87   104   107    1
    88   104   103    1
    89    26    25    2
    90    67    74   am
    91    67    68    2
    92    25    24    1
    93    29    27    1
    94    74    75    1
    95   136   135    1
    96    27    24    1
    97    27    28    1
    98   149   148    1
    99    85    82    1
   100   101   100   ar
   101    79    78    1
   102    24    23    1
   103   148   147   ar
   104   148   146   ar
   105    81    82    1
   106    81    76   am
   107   147   145   ar
   108    75    78    1
   109    75    76    1
   110   135   134    1
   111   135   137    1
   112    78    80    1
   113   146   144   ar
   114   134   131    1
   115   145   143   ar
   116    82    83    1
   117    23    18   am
   118    76    77    2
   119    83    84    2
   120    28    30    1
   121   130   131    1
   122   100   102   ar
   123   100    99    1
   124   144   143   ar
   125   143   142    1
   126    97    98    2
   127    97    96    1
   128    21    20    1
   129   131   132    1
   130   132   133    2
   131   142   139    1
   132    96    99    1
   133    96    95    1
   134    18    19    2
   135    18    17    1
   136    17    20    1
   137    17    16    1
   138    20    22    1
   139   139   140    1
   140   139   138    1
   141    12    11    2
   142    93    92   ar
   143   140   141    2
   144     8     6   ar
   145    94    92   ar
   146    92    91    1
   147    16    11   am
   148    11    10    1
   149    86    87    1
   150     5     6    1
   151     5     2    1
   152     6     7   ar
   153    91    90    1
   154    90    87    1
   155    87    88    1
   156    14    13    1
   157    14    15    1
   158    88    89    2
   159    10    13    1
   160    10     9    1
   161     9    15    1
   162     9     3   am
   163     4     3    2
   164     3     2    1
   165     2     1    1
