@<TRIPOS>MOLECULE
tmp/6n8zC01.pdb
 177 165 0 0 0
SMALL
GASTEIGER

@<TRIPOS>ATOM
      1  N        119.5480   86.6180  117.6220 N.3   432  GLU432     -0.1231
      2  CA       119.1800   88.0160  117.5510 C.3   432  GLU432      0.1699
      3  C        119.5770   88.5240  116.1770 C.2   432  GLU432      0.2592
      4  O        118.8430   89.2600  115.5200 O.2   432  GLU432     -0.2718
      5  CB       119.9300   88.8130  118.6190 C.3   432  GLU432      0.0402
      6  CG       119.6700   88.3890  120.0630 C.3   432  GLU432      0.1161
      7  CD       118.2980   88.7050  120.5840 C.2   432  GLU432      0.3649
      8  OE1      117.8950   89.8370  120.5260 O.co2 432  GLU432     -0.2457
      9  OE2      117.6480   87.8160  121.0590 O.co2 432  GLU432     -0.2457
     10  N        120.7610   88.1030  115.7570 N.am  433  VAL433     -0.1966
     11  CA       121.3360   88.4760  114.4930 C.3   433  VAL433      0.1727
     12  C        121.5960   87.2660  113.6340 C.2   433  VAL433      0.2616
     13  O        122.3990   86.3990  113.9590 O.2   433  VAL433     -0.2715
     14  CB       122.6640   89.2110  114.6980 C.3   433  VAL433      0.0290
     15  CG1      123.2760   89.5510  113.3550 C.3   433  VAL433      0.0023
     16  CG2      122.4410   90.4720  115.5020 C.3   433  VAL433      0.0023
     17  N        120.9400   87.2500  112.5130 N.am  434  VAL434     -0.1977
     18  CA       121.0610   86.2180  111.5330 C.3   434  VAL434      0.1596
     19  C        122.1980   86.5830  110.6450 C.2   434  VAL434      0.2287
     20  O        122.2670   87.7180  110.1700 O.2   434  VAL434     -0.2864
     21  CB       119.8080   86.1700  110.6960 C.3   434  VAL434      0.0276
     22  CG1      119.9280   85.1250  109.6590 C.3   434  VAL434      0.0022
     23  CG2      118.6820   85.9810  111.5760 C.3   434  VAL434      0.0022
     24  N        124.9870   98.4600  104.2960 N.3   469  SER469     -0.1202
     25  CA       124.1160   99.0070  105.3000 C.3   469  SER469      0.2020
     26  C        123.0660   97.9640  105.4910 C.2   469  SER469      0.2619
     27  O        122.7800   97.2150  104.5670 O.2   469  SER469     -0.2717
     28  CB       123.4540  100.2590  104.8210 C.3   469  SER469      0.2103
     29  OG       122.5710   99.9440  103.8140 O.3   469  SER469     -0.2182
     30  N        122.4690   97.9010  106.6570 N.am  470  GLY470     -0.1942
     31  CA       121.3830   96.9420  106.8360 C.3   470  GLY470      0.2014
     32  C        121.9030   95.5280  107.1130 C.2   470  GLY470      0.2640
     33  O        121.1150   94.5970  107.2810 O.2   470  GLY470     -0.2714
     34  N        123.2230   95.3480  107.1290 N.am  471  SER471     -0.1935
     35  CA       123.8170   94.0530  107.3860 C.3   471  SER471      0.2055
     36  C        123.9010   93.7540  108.8740 C.2   471  SER471      0.2644
     37  O        124.3090   92.6630  109.2560 O.2   471  SER471     -0.2714
     38  CB       125.1800   93.9600  106.7670 C.3   471  SER471      0.2130
     39  OG       126.0420   94.8420  107.3790 O.3   471  SER471     -0.2179
     40  N        123.5380   94.7190  109.7300 N.am  472  GLY472     -0.1939
     41  CA       123.5700   94.5050  111.1680 C.3   472  GLY472      0.2014
     42  C        124.8130   94.9930  111.9000 C.2   472  GLY472      0.2639
     43  O        125.0960   94.5260  112.9980 O.2   472  GLY472     -0.2714
     44  N        125.5810   95.9020  111.3300 N.am  473  LYS473     -0.1963
     45  CA       126.7630   96.3690  112.0490 C.3   473  LYS473      0.1728
     46  C        126.4240   96.9370  113.4260 C.2   473  LYS473      0.2617
     47  O        126.9810   96.4910  114.4390 O.2   473  LYS473     -0.2715
     48  CB       127.5600   97.3770  111.2390 C.3   473  LYS473      0.0311
     49  CG       128.1520   96.8200  109.9670 C.3   473  LYS473      0.0038
     50  CD       129.0880   97.8220  109.3310 C.3   473  LYS473      0.0206
     51  CE       128.4110   99.0300  108.7220 C.3   473  LYS473      0.1093
     52  NZ       127.7900   98.7170  107.4100 N.3   473  LYS473     -0.1314
     53  N        125.5240   97.9060  113.4950 N.am  474  THR474     -0.1937
     54  CA       125.2430   98.4810  114.7930 C.3   474  THR474      0.2028
     55  C        124.2710   97.5950  115.5200 C.2   474  THR474      0.2642
     56  O        124.1900   97.6220  116.7420 O.2   474  THR474     -0.2714
     57  CB       124.6580   99.8900  114.7040 C.3   474  THR474      0.1808
     58  OG1      123.3960   99.8390  114.0420 O.3   474  THR474     -0.2208
     59  CG2      125.6040  100.8070  113.9540 C.3   474  THR474      0.0379
     60  N        123.5770   96.7450  114.7960 N.am  475  GLU475     -0.1976
     61  CA       122.6570   95.8820  115.4830 C.3   475  GLU475      0.1602
     62  C        123.4580   94.9240  116.3110 C.2   475  GLU475      0.2287
     63  O        123.1650   94.7120  117.4820 O.2   475  GLU475     -0.2864
     64  CB       121.8140   95.1120  114.5080 C.3   475  GLU475      0.0415
     65  CG       120.7880   94.2490  115.1310 C.3   475  GLU475      0.1163
     66  CD       119.7860   95.0130  115.8900 C.2   475  GLU475      0.3649
     67  OE1      119.7220   96.2110  115.7640 O.co2 475  GLU475     -0.2457
     68  OE2      119.0340   94.3930  116.5740 O.co2 475  GLU475     -0.2457
     69  N        124.7440   96.6490  119.3740 N.3   478  LYS478     -0.1245
     70  CA       123.7550   96.8230  120.4120 C.3   478  LYS478      0.1561
     71  C        123.4160   95.5190  121.0670 C.2   478  LYS478      0.2260
     72  O        123.2810   95.4660  122.2820 O.2   478  LYS478     -0.2867
     73  CB       122.5120   97.4760  119.8800 C.3   478  LYS478      0.0271
     74  CG       122.6910   98.9190  119.5440 C.3   478  LYS478      0.0035
     75  CD       121.3700   99.5450  119.1980 C.3   478  LYS478      0.0206
     76  CE       120.8760   99.0580  117.8440 C.3   478  LYS478      0.1093
     77  NZ       119.6240   99.7490  117.4340 N.3   478  LYS478     -0.1314
     78  N        129.7950  105.3990  115.1620 N.3   539  ASP539     -0.1225
     79  CA       128.9680  105.2200  113.9700 C.3   539  ASP539      0.1805
     80  C        129.5660  105.8710  112.7250 C.2   539  ASP539      0.2597
     81  O        129.6460  107.0880  112.6500 O.2   539  ASP539     -0.2718
     82  CB       127.5820  105.8060  114.2100 C.3   539  ASP539      0.1424
     83  CG       126.7460  105.0160  115.2090 C.2   539  ASP539      0.3668
     84  OD1      126.8630  103.8240  115.2440 O.co2 539  ASP539     -0.2456
     85  OD2      126.0030  105.6360  115.9570 O.co2 539  ASP539     -0.2456
     86  N        129.9380  105.0550  111.7370 N.am  540  GLU540     -0.1979
     87  CA       130.5750  105.5170  110.4970 C.3   540  GLU540      0.1602
     88  C        131.8880  106.2540  110.7100 C.2   540  GLU540      0.2287
     89  O        132.0130  107.4320  110.3840 O.2   540  GLU540     -0.2864
     90  CB       129.6610  106.3990  109.6690 C.3   540  GLU540      0.0415
     91  CG       128.6200  105.5690  108.8840 C.3   540  GLU540      0.1163
     92  CD       127.5740  106.4600  108.2520 C.2   540  GLU540      0.3649
     93  OE1      127.8860  107.6720  108.2050 O.co2 540  GLU540     -0.2457
     94  OE2      126.5470  105.9270  107.8570 O.co2 540  GLU540     -0.2457
     95  N        132.2070  101.2860  113.1170 N.3   579  THR579     -0.1218
     96  CA       131.5510  100.8510  111.9010 C.3   579  THR579      0.1862
     97  C        131.8180  101.7480  110.7100 C.2   579  THR579      0.2287
     98  O        132.0700  102.9340  110.8900 O.2   579  THR579     -0.2866
     99  CB       130.0610  100.8260  112.1820 C.3   579  THR579      0.1770
    100  OG1      129.6620  102.1460  112.5770 O.3   579  THR579     -0.2211
    101  CG2      129.7300   99.8570  113.3080 C.3   579  THR579      0.0375
    102  N        130.9500  101.8830  105.9380 N.3   581  ASN581     -0.1240
    103  CA       130.3510  101.2720  104.7540 C.3   581  ASN581      0.1653
    104  C        131.2260  101.2490  103.4990 C.2   581  ASN581      0.2266
    105  O        130.7280  101.0050  102.3990 O.2   581  ASN581     -0.2867
    106  CB       129.1060  102.0360  104.4540 C.3   581  ASN581      0.1155
    107  CG       128.2010  101.9370  105.5600 C.2   581  ASN581      0.2627
    108  OD1      127.5200  100.9300  105.7620 O.2   581  ASN581     -0.2716
    109  ND2      128.1940  102.9680  106.3560 N.am  581  ASN581     -0.0877
    110  N        123.1740   89.5310  103.5640 N.3   628  LEU628     -0.1245
    111  CA       122.0390   88.8280  104.1360 C.3   628  LEU628      0.1561
    112  C        121.2100   88.1490  103.0750 C.2   628  LEU628      0.2260
    113  O        120.2550   88.7140  102.5490 O.2   628  LEU628     -0.2867
    114  CB       121.1880   89.7690  104.9460 C.3   628  LEU628      0.0270
    115  CG       121.9070   90.3510  106.0910 C.3   628  LEU628      0.0019
    116  CD1      121.0200   91.3100  106.7640 C.3   628  LEU628      0.0001
    117  CD2      122.3470   89.2210  107.0280 C.3   628  LEU628      0.0001
    118  N        115.3420   86.1390  109.4060 N.3   636  ILE636     -0.1245
    119  CA       115.2040   87.5040  109.8810 C.3   636  ILE636      0.1561
    120  C        113.7520   87.8760  110.0020 C.2   636  ILE636      0.2260
    121  O        113.3690   88.5520  110.9560 O.2   636  ILE636     -0.2867
    122  CB       115.9000   88.5110  108.9970 C.3   636  ILE636      0.0252
    123  CG1      117.3560   88.3000  109.0940 C.3   636  ILE636      0.0019
    124  CG2      115.5750   89.8790  109.4850 C.3   636  ILE636      0.0019
    125  CD1      118.1680   89.0210  108.0840 C.3   636  ILE636      0.0001
    126  N        112.4870   86.8020  113.2190 N.3   639  ILE639     -0.1231
    127  CA       112.9400   87.5970  114.3350 C.3   639  ILE639      0.1692
    128  C        112.2480   88.9210  114.3940 C.2   639  ILE639      0.2591
    129  O        111.8060   89.3410  115.4600 O.2   639  ILE639     -0.2718
    130  CB       114.4310   87.8570  114.2840 C.3   639  ILE639      0.0266
    131  CG1      115.1670   86.5720  114.5210 C.3   639  ILE639      0.0019
    132  CG2      114.8100   88.9170  115.3020 C.3   639  ILE639      0.0020
    133  CD1      116.5960   86.6810  114.2110 C.3   639  ILE639      0.0001
    134  N        112.1220   89.5860  113.2640 N.am  640  ARG640     -0.1980
    135  CA       111.4880   90.8740  113.3000 C.3   640  ARG640      0.1597
    136  C        110.0530   90.7690  113.7120 C.2   640  ARG640      0.2287
    137  O        109.5780   91.5840  114.4940 O.2   640  ARG640     -0.2864
    138  CB       111.5650   91.5740  111.9720 C.3   640  ARG640      0.0334
    139  CG       112.9060   92.0500  111.6460 C.3   640  ARG640      0.0492
    140  CD       113.3860   92.9480  112.7030 C.3   640  ARG640      0.2205
    141  NE       112.6030   94.1550  112.8260 N.pl3 640  ARG640     -0.0865
    142  CZ       112.4290   94.8270  113.9720 C.cat 640  ARG640      0.5346
    143  NH1      112.9410   94.4120  115.1070 N.pl3 640  ARG640      0.1354
    144  NH2      111.7340   95.9380  113.9550 N.pl3 640  ARG640      0.1354
    145  N        110.1150   90.5470  117.4080 N.3   643  GLU643     -0.1245
    146  CA       110.5090   91.7590  118.1020 C.3   643  GLU643      0.1567
    147  C        109.4440   92.8210  118.0180 C.2   643  GLU643      0.2260
    148  O        109.2750   93.6050  118.9480 O.2   643  GLU643     -0.2867
    149  CB       111.8450   92.2890  117.6240 C.3   643  GLU643      0.0388
    150  CG       113.0020   91.4450  118.0820 C.3   643  GLU643      0.1160
    151  CD       114.3470   92.0280  117.7400 C.2   643  GLU643      0.3649
    152  OE1      114.5130   92.5840  116.6720 O.co2 643  GLU643     -0.2457
    153  OE2      115.2130   91.9650  118.5970 O.co2 643  GLU643     -0.2457
    154  N        118.8600   94.1120  105.5600 N.3   678  ALA678     -0.1231
    155  CA       117.5530   93.7920  106.1120 C.3   678  ALA678      0.1694
    156  C        116.6800   95.0100  106.2640 C.2   678  ALA678      0.2591
    157  O        115.5080   94.9110  106.6340 O.2   678  ALA678     -0.2718
    158  CB       117.6910   93.1410  107.4670 C.3   678  ALA678      0.0304
    159  N        117.2250   96.1720  105.9870 N.am  679  ARG679     -0.1980
    160  CA       116.4480   97.3700  106.2070 C.3   679  ARG679      0.1597
    161  C        115.0650   97.3670  105.5230 C.2   679  ARG679      0.2287
    162  O        114.0580   97.6350  106.1870 O.2   679  ARG679     -0.2864
    163  CB       117.2600   98.5850  105.8540 C.3   679  ARG679      0.0334
    164  CG       116.5560   99.8230  106.0010 C.3   679  ARG679      0.0492
    165  CD       116.1430  100.0000  107.3770 C.3   679  ARG679      0.2205
    166  NE       117.2510   99.8450  108.2730 N.pl3 679  ARG679     -0.0865
    167  CZ       118.1570  100.7900  108.5340 C.cat 679  ARG679      0.5346
    168  NH1      118.0750  101.9420  107.9230 N.pl3 679  ARG679      0.1354
    169  NH2      119.1390  100.5550  109.4000 N.pl3 679  ARG679      0.1354
    170  N        112.3010   95.4830  107.3380 N.3   682  ASN682     -0.1240
    171  CA       111.6530   96.1350  108.4280 C.3   682  ASN682      0.1653
    172  C        110.6160   97.0730  107.8500 C.2   682  ASN682      0.2266
    173  O        109.4640   97.1040  108.2840 O.2   682  ASN682     -0.2867
    174  CB       112.6300   96.8790  109.2830 C.3   682  ASN682      0.1155
    175  CG       111.9730   97.3390  110.4690 C.2   682  ASN682      0.2627
    176  OD1      111.5300   96.5060  111.2720 O.2   682  ASN682     -0.2716
    177  ND2      111.8570   98.6180  110.6260 N.am  682  ASN682     -0.0877
@<TRIPOS>BOND
     1   105   104    2
     2   113   112    2
     3   112   111    1
     4   104   103    1
     5   110   111    1
     6    29    28    1
     7   111   114    1
     8    24    25    1
     9   106   103    1
    10   106   107    1
    11    27    26    2
    12   103   102    1
    13    28    25    1
    14   114   115    1
    15    25    26    1
    16    26    30   am
    17   161   162    2
    18   161   160    1
    19   107   108    2
    20   107   109   am
    21   154   155    1
    22   163   164    1
    23   163   160    1
    24   159   160    1
    25   159   156   am
    26   164   165    1
    27   115   116    1
    28   115   117    1
    29   155   156    1
    30   155   158    1
    31   156   157    2
    32    30    31    1
    33    38    39    1
    34    38    35    1
    35    31    32    1
    36    32    34   am
    37    32    33    2
    38    34    35    1
    39   170   171    1
    40   165   166    1
    41    35    36    1
    42    52    51    1
    43   172   173    2
    44   172   171    1
    45    94    92   ar
    46   168   167    1
    47   125   123    1
    48    93    92   ar
    49    92    91    1
    50   166   167    2
    51   171   174    1
    52   167   169    1
    53    51    50    1
    54    36    37    2
    55    36    40   am
    56    91    90    1
    57   122   123    1
    58   122   124    1
    59   122   119    1
    60   174   175    1
    61    50    49    1
    62   118   119    1
    63    22    21    1
    64    90    87    1
    65    40    41    1
    66   119   120    1
    67    49    48    1
    68   120   121    2
    69    20    19    2
    70    89    88    2
    71   175   177   am
    72   175   176    2
    73    87    88    1
    74    87    86    1
    75    19    18    1
    76    21    18    1
    77    21    23    1
    78    97    98    2
    79    97    96    1
    80    41    42    1
    81    48    45    1
    82    44    42   am
    83    44    45    1
    84    18    17    1
    85   139   138    1
    86   139   140    1
    87    86    80   am
    88    42    43    2
    89    96    99    1
    90    96    95    1
    91   138   135    1
    92    45    46    1
    93    99   100    1
    94    99   101    1
    95    17    12   am
    96    81    80    2
    97   140   141    1
    98    80    79    1
    99   141   142    2
   100   126   127    1
   101   134   135    1
   102   134   128   am
   103   135   136    1
   104    15    14    1
   105    46    53   am
   106    46    47    2
   107    53    54    1
   108    12    13    2
   109    12    11    1
   110   136   137    2
   111    59    57    1
   112   144   142    1
   113    79    82    1
   114    79    78    1
   115   142   143    1
   116    58    57    1
   117    82    83    1
   118   133   131    1
   119   130   127    1
   120   130   131    1
   121   130   132    1
   122   127   128    1
   123   128   129    2
   124    11    14    1
   125    11    10    1
   126    64    65    1
   127    64    61    1
   128    14    16    1
   129    57    54    1
   130    54    55    1
   131    60    61    1
   132    60    55   am
   133    65    66    1
   134    83    84   ar
   135    83    85   ar
   136    61    62    1
   137    55    56    2
   138     4     3    2
   139    10     3   am
   140    67    66   ar
   141    66    68   ar
   142     3     2    1
   143    62    63    2
   144   152   151   ar
   145   145   146    1
   146    77    76    1
   147     2     1    1
   148     2     5    1
   149   149   150    1
   150   149   146    1
   151   151   150    1
   152   151   153   ar
   153    76    75    1
   154   147   146    1
   155   147   148    2
   156     5     6    1
   157    75    74    1
   158    69    70    1
   159    74    73    1
   160    73    70    1
   161     6     7    1
   162    70    71    1
   163     8     7   ar
   164     7     9   ar
   165    71    72    2
