@<TRIPOS>MOLECULE
tmp/6n91B02.pdb
 86 84 0 0 0
SMALL
GASTEIGER

@<TRIPOS>ATOM
      1  N         92.8410  -68.8640   40.0870 N.3   135  ASN135     -0.1240
      2  CA        92.4790  -68.9530   41.4880 C.3   135  ASN135      0.1653
      3  C         91.0390  -68.4840   41.6520 C.2   135  ASN135      0.2266
      4  O         90.4530  -67.8780   40.7490 O.2   135  ASN135     -0.2867
      5  CB        93.4230  -68.1310   42.3700 C.3   135  ASN135      0.1155
      6  CG        94.6310  -68.9210   42.7880 C.2   135  ASN135      0.2627
      7  OD1       94.5100  -70.1000   43.1360 O.2   135  ASN135     -0.2716
      8  ND2       95.8130  -68.2940   42.7430 N.am  135  ASN135     -0.0877
      9  N         88.4840  -73.1220   52.0870 N.3   160  LYS160     -0.1231
     10  CA        89.4890  -72.0630   52.0810 C.3   160  LYS160      0.1693
     11  C         90.8560  -72.5430   51.5920 C.2   160  LYS160      0.2592
     12  O         91.6770  -71.7160   51.1840 O.2   160  LYS160     -0.2718
     13  CB        89.6180  -71.4470   53.4750 C.3   160  LYS160      0.0285
     14  CG        90.2800  -72.3410   54.5070 C.3   160  LYS160      0.0035
     15  CD        90.5340  -71.5520   55.7960 C.3   160  LYS160      0.0206
     16  CE        91.0800  -72.4200   56.9150 C.3   160  LYS160      0.1093
     17  NZ        91.9900  -71.6340   57.8090 N.3   160  LYS160     -0.1314
     18  N         91.1160  -73.8500   51.5940 N.am  161  ASN161     -0.1960
     19  CA        92.3600  -74.3350   51.0090 C.3   161  ASN161      0.1819
     20  C         92.3920  -74.1890   49.4890 C.2   161  ASN161      0.2621
     21  O         93.4540  -74.3800   48.8860 O.2   161  ASN161     -0.2715
     22  CB        92.5920  -75.8000   51.3900 C.3   161  ASN161      0.1195
     23  CG        92.8250  -75.9880   52.8800 C.2   161  ASN161      0.2630
     24  OD1       93.2630  -75.0700   53.5800 O.2   161  ASN161     -0.2716
     25  ND2       92.5350  -77.1870   53.3720 N.am  161  ASN161     -0.0877
     26  N         91.2630  -73.8650   48.8560 N.am  162  HIS162     -0.1959
     27  CA        91.1920  -73.7190   47.4090 C.3   162  HIS162      0.1787
     28  C         90.7560  -72.3290   46.9780 C.2   162  HIS162      0.2620
     29  O         90.5270  -72.1020   45.7850 O.2   162  HIS162     -0.2715
     30  CB        90.2560  -74.7800   46.8420 C.3   162  HIS162      0.0785
     31  CG        90.6480  -76.1620   47.2500 C.ar  162  HIS162      0.0821
     32  ND1       89.9470  -76.8910   48.1870 N.ar  162  HIS162     -0.2267
     33  CD2       91.7170  -76.9180   46.9050 C.ar  162  HIS162      0.1154
     34  CE1       90.5450  -78.0570   48.3710 C.ar  162  HIS162      0.1986
     35  NE2       91.6210  -78.0970   47.6050 N.ar  162  HIS162     -0.2212
     36  N         90.6530  -71.3950   47.9160 N.am  163  ILE163     -0.1963
     37  CA        90.1950  -70.0370   47.6540 C.3   163  ILE163      0.1727
     38  C         91.2480  -69.0830   48.2060 C.2   163  ILE163      0.2616
     39  O         91.7760  -69.3110   49.2980 O.2   163  ILE163     -0.2715
     40  CB        88.8120  -69.8190   48.3010 C.3   163  ILE163      0.0290
     41  CG1       87.8030  -70.7800   47.6550 C.3   163  ILE163      0.0022
     42  CG2       88.3590  -68.3720   48.1910 C.3   163  ILE163      0.0023
     43  CD1       86.4310  -70.7080   48.2340 C.3   163  ILE163      0.0001
     44  N         91.5970  -68.0420   47.4420 N.am  164  VAL164     -0.1977
     45  CA        92.6760  -67.1480   47.8680 C.3   164  VAL164      0.1596
     46  C         92.1770  -65.8730   48.5500 C.2   164  VAL164      0.2287
     47  O         92.9500  -65.2330   49.2790 O.2   164  VAL164     -0.2864
     48  CB        93.6150  -66.7730   46.6980 C.3   164  VAL164      0.0276
     49  CG1       94.3170  -68.0190   46.1330 C.3   164  VAL164      0.0022
     50  CG2       92.8720  -66.0210   45.6170 C.3   164  VAL164      0.0022
     51  N         91.1890  -66.3440   59.0610 N.3   190  ALA190     -0.1231
     52  CA        91.3970  -67.5810   58.3210 C.3   190  ALA190      0.1694
     53  C         92.6040  -67.5200   57.3880 C.2   190  ALA190      0.2593
     54  O         92.9550  -68.5420   56.7860 O.2   190  ALA190     -0.2718
     55  CB        90.1380  -67.9280   57.5180 C.3   190  ALA190      0.0304
     56  N         93.2400  -66.3590   57.2490 N.am  191  GLY191     -0.1942
     57  CA        94.4100  -66.2370   56.4030 C.3   191  GLY191      0.2014
     58  C         94.1320  -65.9230   54.9500 C.2   191  GLY191      0.2639
     59  O         95.0360  -66.0580   54.1200 O.2   191  GLY191     -0.2714
     60  N         92.9220  -65.5040   54.6090 N.am  192  LEU192     -0.1963
     61  CA        92.6150  -65.1770   53.2270 C.3   192  LEU192      0.1728
     62  C         92.8570  -63.6930   52.9590 C.2   192  LEU192      0.2616
     63  O         92.8360  -62.8580   53.8680 O.2   192  LEU192     -0.2715
     64  CB        91.1700  -65.5500   52.8840 C.3   192  LEU192      0.0311
     65  CG        90.7900  -67.0410   52.9310 C.3   192  LEU192      0.0022
     66  CD1       89.4890  -67.2960   52.1760 C.3   192  LEU192      0.0001
     67  CD2       91.8880  -67.8900   52.3580 C.3   192  LEU192      0.0001
     68  N         93.1160  -63.3820   51.6890 N.am  193  HIS193     -0.1973
     69  CA        93.2590  -62.0150   51.2150 C.3   193  HIS193      0.1656
     70  C         91.8950  -61.3410   51.1230 C.2   193  HIS193      0.2291
     71  O         90.8480  -61.9940   51.1490 O.2   193  HIS193     -0.2864
     72  CB        93.9390  -61.9870   49.8480 C.3   193  HIS193      0.0771
     73  CG        95.4110  -62.2380   49.8970 C.ar  193  HIS193      0.0820
     74  ND1       96.3130  -61.2740   50.2900 N.ar  193  HIS193     -0.2267
     75  CD2       96.1420  -63.3370   49.5870 C.ar  193  HIS193      0.1154
     76  CE1       97.5370  -61.7690   50.2280 C.ar  193  HIS193      0.1986
     77  NE2       97.4610  -63.0190   49.8040 N.ar  193  HIS193     -0.2212
     78  N        105.5020  -67.5180   42.2640 N.3   322  GLU322     -0.1245
     79  CA       104.5310  -67.7280   41.1850 C.3   322  GLU322      0.1567
     80  C        104.4830  -66.5410   40.2240 C.2   322  GLU322      0.2260
     81  O        104.2570  -66.7220   39.0190 O.2   322  GLU322     -0.2867
     82  CB       103.1340  -67.9910   41.7580 C.3   322  GLU322      0.0388
     83  CG       103.0160  -69.3110   42.5290 C.3   322  GLU322      0.1160
     84  CD       101.7100  -69.4230   43.3200 C.2   322  GLU322      0.3649
     85  OE1      100.9510  -70.3940   43.0940 O.co2 322  GLU322     -0.2457
     86  OE2      101.4430  -68.5380   44.1700 O.co2 322  GLU322     -0.2457
@<TRIPOS>BOND
     1    81    80    2
     2     1     2    1
     3    80    79    1
     4     4     3    2
     5    79    82    1
     6    79    78    1
     7     2     3    1
     8     2     5    1
     9    82    83    1
    10     5     6    1
    11    83    84    1
    12     8     6   am
    13     6     7    2
    14    85    84   ar
    15    84    86   ar
    16    50    48    1
    17    29    28    2
    18    49    48    1
    19    48    45    1
    20    30    31    1
    21    30    27    1
    22    33    31   ar
    23    33    35   ar
    24    28    27    1
    25    28    36   am
    26    31    32   ar
    27    27    26    1
    28    44    45    1
    29    44    38   am
    30    35    34   ar
    31    37    36    1
    32    37    38    1
    33    37    40    1
    34    41    43    1
    35    41    40    1
    36    45    46    1
    37    32    34   ar
    38    42    40    1
    39    38    39    2
    40    46    47    2
    41    26    20   am
    42    21    20    2
    43    20    19    1
    44    75    77   ar
    45    75    73   ar
    46    77    76   ar
    47    72    73    1
    48    72    69    1
    49    73    74   ar
    50    76    74   ar
    51    19    22    1
    52    19    18    1
    53    70    71    2
    54    70    69    1
    55    12    11    2
    56    69    68    1
    57    22    23    1
    58    11    18   am
    59    11    10    1
    60    68    62   am
    61    10     9    1
    62    10    13    1
    63    66    65    1
    64    67    65    1
    65    23    25   am
    66    23    24    2
    67    64    65    1
    68    64    61    1
    69    62    61    1
    70    62    63    2
    71    61    60    1
    72    13    14    1
    73    59    58    2
    74    14    15    1
    75    60    58   am
    76    58    57    1
    77    15    16    1
    78    57    56    1
    79    54    53    2
    80    16    17    1
    81    56    53   am
    82    53    52    1
    83    55    52    1
    84    52    51    1
