@<TRIPOS>MOLECULE
tmp/6n91A01.pdb
 109 103 0 0 0
SMALL
GASTEIGER

@<TRIPOS>ATOM
      1  N         55.0880  -59.6080    9.3880 N.3    94  TYR94      -0.1241
      2  CA        55.4310  -58.9960    8.1100 C.3    94  TYR94       0.1605
      3  C         56.6560  -58.1230    8.3170 C.2    94  TYR94       0.2264
      4  O         56.6440  -57.2300    9.1710 O.2    94  TYR94      -0.2867
      5  CB        54.2620  -58.1750    7.5540 C.3    94  TYR94       0.0534
      6  CG        54.6430  -57.3030    6.3790 C.ar   94  TYR94      -0.0201
      7  CD1       54.6840  -57.8270    5.0860 C.ar   94  TYR94      -0.0009
      8  CD2       54.9670  -55.9590    6.5550 C.ar   94  TYR94      -0.0009
      9  CE1       55.0340  -57.0390    4.0030 C.ar   94  TYR94       0.0417
     10  CE2       55.3130  -55.1520    5.4600 C.ar   94  TYR94       0.0417
     11  CZ        55.3520  -55.7020    4.1940 C.ar   94  TYR94       0.1957
     12  OH        55.6900  -54.9120    3.1050 O.3    94  TYR94      -0.2866
     13  N         67.3570  -61.2160   -3.2480 N.3   120  VAL120     -0.1245
     14  CA        65.9950  -61.5900   -3.6280 C.3   120  VAL120      0.1561
     15  C         65.8130  -63.1000   -3.4990 C.2   120  VAL120      0.2260
     16  O         64.8370  -63.5760   -2.9020 O.2   120  VAL120     -0.2867
     17  CB        65.6650  -61.0970   -5.0510 C.3   120  VAL120      0.0252
     18  CG1       64.3320  -61.6670   -5.5100 C.3   120  VAL120      0.0019
     19  CG2       65.6150  -59.5730   -5.1090 C.3   120  VAL120      0.0019
     20  N         65.7590  -64.1690    0.3240 N.3   123  VAL123     -0.1231
     21  CA        64.5160  -63.8260    1.0170 C.3   123  VAL123      0.1692
     22  C         63.3490  -64.6530    0.4820 C.2   123  VAL123      0.2591
     23  O         62.4760  -65.0870    1.2490 O.2   123  VAL123     -0.2718
     24  CB        64.2520  -62.3120    0.9220 C.3   123  VAL123      0.0266
     25  CG1       62.8980  -61.9570    1.5230 C.3   123  VAL123      0.0020
     26  CG2       65.3800  -61.5390    1.6250 C.3   123  VAL123      0.0020
     27  N         63.3280  -64.9150   -0.8280 N.am  124  ARG124     -0.1980
     28  CA        62.2820  -65.7700   -1.3860 C.3   124  ARG124      0.1597
     29  C         62.3600  -67.1920   -0.8260 C.2   124  ARG124      0.2287
     30  O         61.3400  -67.7730   -0.4330 O.2   124  ARG124     -0.2864
     31  CB        62.3730  -65.7770   -2.9140 C.3   124  ARG124      0.0334
     32  CG        61.5760  -66.8850   -3.5700 C.3   124  ARG124      0.0492
     33  CD        60.7440  -66.3850   -4.7430 C.3   124  ARG124      0.2205
     34  NE        61.5470  -66.0080   -5.9050 N.pl3 124  ARG124     -0.0865
     35  CZ        61.8880  -64.7610   -6.2100 C.cat 124  ARG124      0.5346
     36  NH1       61.4990  -63.7630   -5.4310 N.pl3 124  ARG124      0.1354
     37  NH2       62.6140  -64.5080   -7.2940 N.pl3 124  ARG124      0.1354
     38  N         61.2020  -66.9620    2.8260 N.3   127  VAL127     -0.1245
     39  CA        59.7490  -66.8530    2.9430 C.3   127  VAL127      0.1561
     40  C         59.0970  -68.2090    2.7050 C.2   127  VAL127      0.2260
     41  O         58.1360  -68.5910    3.3910 O.2   127  VAL127     -0.2867
     42  CB        59.2230  -65.7720    1.9750 C.3   127  VAL127      0.0252
     43  CG1       57.7130  -65.8850    1.7750 C.3   127  VAL127      0.0019
     44  CG2       59.5840  -64.3910    2.5020 C.3   127  VAL127      0.0019
     45  N         56.7450  -66.4770    6.9860 N.3   132  ILE132     -0.1231
     46  CA        56.2750  -65.1270    7.2820 C.3   132  ILE132      0.1692
     47  C         56.1190  -64.3710    5.9700 C.2   132  ILE132      0.2592
     48  O         56.5000  -64.8680    4.9060 O.2   132  ILE132     -0.2718
     49  CB        57.2160  -64.3580    8.2300 C.3   132  ILE132      0.0266
     50  CG1       58.5770  -64.1500    7.5850 C.3   132  ILE132      0.0019
     51  CG2       57.3180  -65.0460    9.5940 C.3   132  ILE132      0.0020
     52  CD1       59.3840  -63.0710    8.2830 C.3   132  ILE132      0.0001
     53  N         55.5660  -63.1630    6.0400 N.am  133  GLN133     -0.1966
     54  CA        55.4660  -62.2820    4.8890 C.3   133  GLN133      0.1733
     55  C         56.6160  -61.2950    4.9430 C.2   133  GLN133      0.2616
     56  O         57.0480  -60.8880    6.0280 O.2   133  GLN133     -0.2715
     57  CB        54.1200  -61.5590    4.8650 C.3   133  GLN133      0.0408
     58  CG        52.9840  -62.4980    4.4690 C.3   133  GLN133      0.0908
     59  CD        51.6150  -61.8480    4.5650 C.2   133  GLN133      0.2608
     60  OE1       51.3530  -60.8210    3.9360 O.2   133  GLN133     -0.2717
     61  NE2       50.7430  -62.4350    5.3690 N.am  133  GLN133     -0.0878
     62  N         57.1400  -60.9420    3.7740 N.am  134  ALA134     -0.1963
     63  CA        58.2860  -60.0460    3.7230 C.3   134  ALA134      0.1728
     64  C         58.2960  -59.3220    2.3920 C.2   134  ALA134      0.2616
     65  O         57.8460  -59.8580    1.3720 O.2   134  ALA134     -0.2715
     66  CB        59.6160  -60.7890    3.9120 C.3   134  ALA134      0.0334
     67  N         58.8060  -58.0940    2.4210 N.am  135  ASN135     -0.1958
     68  CA        59.1160  -57.3390    1.2270 C.3   135  ASN135      0.1819
     69  C         60.5120  -56.7520    1.3800 C.2   135  ASN135      0.2621
     70  O         61.0790  -56.7230    2.4750 O.2   135  ASN135     -0.2715
     71  CB        58.0710  -56.2430    0.9650 C.3   135  ASN135      0.1195
     72  CG        56.9080  -56.7560    0.1540 C.2   135  ASN135      0.2630
     73  OD1       57.1100  -57.5220   -0.7880 O.2   135  ASN135     -0.2716
     74  ND2       55.6790  -56.3690    0.5270 N.am  135  ASN135     -0.0877
     75  N         61.0780  -56.3090    0.2660 N.am  136  LEU136     -0.1977
     76  CA        62.4430  -55.7970    0.2300 C.3   136  LEU136      0.1596
     77  C         62.4470  -54.2990   -0.0410 C.2   136  LEU136      0.2287
     78  O         61.6050  -53.7930   -0.7860 O.2   136  LEU136     -0.2864
     79  CB        63.2680  -56.5310   -0.8400 C.3   136  LEU136      0.0297
     80  CG        63.5930  -57.9800   -0.5040 C.3   136  LEU136      0.0022
     81  CD1       64.2000  -58.7240   -1.6820 C.3   136  LEU136      0.0001
     82  CD2       64.5560  -58.0030    0.6680 C.3   136  LEU136      0.0001
     83  N         60.5480  -57.0320   -7.6170 N.3   162  HIS162     -0.1241
     84  CA        60.6430  -57.7550   -6.3530 C.3   162  HIS162      0.1621
     85  C         60.9600  -56.8440   -5.1840 C.2   162  HIS162      0.2264
     86  O         61.1930  -57.3320   -4.0730 O.2   162  HIS162     -0.2867
     87  CB        61.6930  -58.8580   -6.4550 C.3   162  HIS162      0.0745
     88  CG        61.4700  -59.7710   -7.6100 C.ar  162  HIS162      0.0817
     89  ND1       60.4170  -60.6580   -7.6580 N.ar  162  HIS162     -0.2268
     90  CD2       62.1410  -59.9130   -8.7770 C.ar  162  HIS162      0.1154
     91  CE1       60.4560  -61.3190   -8.8010 C.ar  162  HIS162      0.1986
     92  NE2       61.4910  -60.8850   -9.4990 N.ar  162  HIS162     -0.2212
     93  N         52.2100  -52.0940    1.4710 N.3   318  LEU318     -0.1245
     94  CA        51.2960  -53.1380    1.0250 C.3   318  LEU318      0.1561
     95  C         50.0040  -52.4990    0.5300 C.2   318  LEU318      0.2260
     96  O         49.6740  -51.3690    0.8910 O.2   318  LEU318     -0.2867
     97  CB        50.9650  -54.1210    2.1600 C.3   318  LEU318      0.0270
     98  CG        52.0930  -55.0160    2.6660 C.3   318  LEU318      0.0019
     99  CD1       51.6920  -55.6450    3.9950 C.3   318  LEU318      0.0001
    100  CD2       52.4010  -56.0850    1.6150 C.3   318  LEU318      0.0001
    101  N         45.9860  -56.3900    1.0640 N.3   322  GLU322     -0.1245
    102  CA        46.9520  -57.1560    1.8510 C.3   322  GLU322      0.1567
    103  C         46.9430  -56.7430    3.3180 C.2   322  GLU322      0.2260
    104  O         47.1780  -57.5830    4.1980 O.2   322  GLU322     -0.2867
    105  CB        48.3530  -56.9990    1.2690 C.3   322  GLU322      0.0388
    106  CG        48.5010  -57.5860   -0.1330 C.3   322  GLU322      0.1160
    107  CD        49.7890  -57.1280   -0.8110 C.2   322  GLU322      0.3649
    108  OE1       50.0500  -55.9030   -0.8510 O.co2 322  GLU322     -0.2457
    109  OE2       50.5480  -57.9950   -1.2960 O.co2 322  GLU322     -0.2457
@<TRIPOS>BOND
     1    92    91   ar
     2    92    90   ar
     3    91    89   ar
     4    90    88   ar
     5    89    88   ar
     6    83    84    1
     7    88    87    1
     8    37    35    1
     9    87    84    1
    10    84    85    1
    11    35    34    2
    12    35    36    1
    13    34    33    1
    14    18    17    1
    15    85    86    2
    16    19    17    1
    17    17    14    1
    18    33    32    1
    19    14    15    1
    20    14    13    1
    21    32    31    1
    22    15    16    2
    23    31    28    1
    24    81    80    1
    25    28    27    1
    26    28    29    1
    27   109   107   ar
    28   108   107   ar
    29    79    80    1
    30    79    76    1
    31    27    22   am
    32    29    30    2
    33   107   106    1
    34    73    72    2
    35    78    77    2
    36    80    82    1
    37   106   105    1
    38    77    76    1
    39    72    74   am
    40    72    71    1
    41    76    75    1
    42    75    69   am
    43    20    21    1
    44    22    21    1
    45    22    23    2
    46    95    96    2
    47    95    94    1
    48    24    21    1
    49    24    25    1
    50    24    26    1
    51    71    68    1
    52    94    93    1
    53    94    97    1
    54   101   102    1
    55    68    69    1
    56    68    67    1
    57   105   102    1
    58    65    64    2
    59    69    70    2
    60   100    98    1
    61    43    42    1
    62   102   103    1
    63    42    44    1
    64    42    39    1
    65    97    98    1
    66    64    67   am
    67    64    63    1
    68    98    99    1
    69    40    39    1
    70    40    41    2
    71    38    39    1
    72    12    11    1
    73   103   104    2
    74    63    62    1
    75    63    66    1
    76    62    55   am
    77    60    59    2
    78     9    11   ar
    79     9     7   ar
    80    11    10   ar
    81    58    59    1
    82    58    57    1
    83    59    61   am
    84    57    54    1
    85    54    55    1
    86    54    53    1
    87    48    47    2
    88    55    56    2
    89     7     6   ar
    90    10     8   ar
    91    47    53   am
    92    47    46    1
    93     6     8   ar
    94     6     5    1
    95    45    46    1
    96    46    49    1
    97     5     2    1
    98    50    49    1
    99    50    52    1
   100     2     3    1
   101     2     1    1
   102    49    51    1
   103     3     4    2
