@<TRIPOS>MOLECULE
tmp/6n91A00.pdb
 170 159 0 0 0
SMALL
GASTEIGER

@<TRIPOS>ATOM
      1  N         67.4690  -53.4170    8.8430 N.3    14  HIS14      -0.1241
      2  CA        68.5560  -53.5500    7.8700 C.3    14  HIS14       0.1621
      3  C         69.0710  -54.9800    7.8890 C.2    14  HIS14       0.2264
      4  O         69.6780  -55.4150    8.8750 O.2    14  HIS14      -0.2867
      5  CB        69.7230  -52.6130    8.1810 C.3    14  HIS14       0.0745
      6  CG        69.4010  -51.1530    8.1080 C.ar   14  HIS14       0.0817
      7  ND1       69.9550  -50.3250    7.1550 N.ar   14  HIS14      -0.2268
      8  CD2       68.6630  -50.3580    8.9170 C.ar   14  HIS14       0.1154
      9  CE1       69.5430  -49.0840    7.3610 C.ar   14  HIS14       0.1986
     10  NE2       68.7650  -49.0760    8.4290 N.ar   14  HIS14      -0.2212
     11  N         71.5730  -56.1510    6.2710 N.3    16  ASP16      -0.1239
     12  CA        73.0280  -56.1440    6.3140 C.3    16  ASP16       0.1674
     13  C         73.5760  -55.4590    7.5550 C.2    16  ASP16       0.2266
     14  O         74.7930  -55.3280    7.6810 O.2    16  ASP16      -0.2867
     15  CB        73.6240  -55.5160    5.0300 C.3    16  ASP16       0.1410
     16  CG        72.9240  -54.2290    4.5910 C.2    16  ASP16       0.3668
     17  OD1       71.9620  -53.7720    5.2640 O.co2  16  ASP16      -0.2456
     18  OD2       73.3460  -53.6710    3.5470 O.co2  16  ASP16      -0.2456
     19  N         76.1780  -40.7260   14.8270 N.3    56  LEU56      -0.1245
     20  CA        75.6740  -41.6860   13.8520 C.3    56  LEU56       0.1561
     21  C         76.8120  -42.3710   13.0940 C.2    56  LEU56       0.2260
     22  O         76.7950  -43.5940   12.9130 O.2    56  LEU56      -0.2867
     23  CB        74.7210  -40.9810   12.8890 C.3    56  LEU56       0.0270
     24  CG        74.3970  -41.6850   11.5780 C.3    56  LEU56       0.0019
     25  CD1       73.8030  -43.0260   11.9230 C.3    56  LEU56       0.0001
     26  CD2       73.4120  -40.8590   10.7630 C.3    56  LEU56       0.0001
     27  N         78.5060  -45.0260   15.1140 N.3    59  PHE59      -0.1227
     28  CA        77.6530  -46.2120   15.1680 C.3    59  PHE59       0.1736
     29  C         77.7490  -47.0310   13.8810 C.2    59  PHE59       0.2595
     30  O         77.7970  -48.2650   13.9230 O.2    59  PHE59      -0.2718
     31  CB        76.2080  -45.7660   15.4490 C.3    59  PHE59       0.0547
     32  CG        75.1660  -46.8620   15.3370 C.ar   59  PHE59      -0.0202
     33  CD1       74.6330  -47.2230   14.1030 C.ar   59  PHE59      -0.0042
     34  CD2       74.6670  -47.4770   16.4720 C.ar   59  PHE59      -0.0042
     35  CE1       73.6600  -48.2150   13.9970 C.ar   59  PHE59      -0.0003
     36  CE2       73.6780  -48.4630   16.3770 C.ar   59  PHE59      -0.0003
     37  CZ        73.1780  -48.8320   15.1390 C.ar   59  PHE59      -0.0000
     38  N         77.8120  -46.3640   12.7270 N.am   60  LEU60      -0.1980
     39  CA        77.7770  -47.0810   11.4560 C.3    60  LEU60       0.1596
     40  C         78.9870  -47.9880   11.2600 C.2    60  LEU60       0.2287
     41  O         78.8770  -49.0110   10.5690 O.2    60  LEU60      -0.2864
     42  CB        77.6780  -46.0950   10.2870 C.3    60  LEU60       0.0297
     43  CG        76.3360  -45.3650   10.1510 C.3    60  LEU60       0.0022
     44  CD1       76.3680  -44.3320    9.0110 C.3    60  LEU60       0.0001
     45  CD2       75.2130  -46.3660    9.9670 C.3    60  LEU60       0.0001
     46  N         78.7570  -51.9310   11.7520 N.3    63  LEU63      -0.1245
     47  CA        78.2800  -52.8490   10.7270 C.3    63  LEU63       0.1561
     48  C         79.3900  -53.3660    9.8220 C.2    63  LEU63       0.2260
     49  O         79.1390  -54.2990    9.0520 O.2    63  LEU63      -0.2867
     50  CB        77.2180  -52.1790    9.8540 C.3    63  LEU63       0.0270
     51  CG        75.7860  -51.9950   10.3510 C.3    63  LEU63       0.0019
     52  CD1       75.7310  -50.9000   11.4220 C.3    63  LEU63       0.0001
     53  CD2       74.8990  -51.6310    9.1620 C.3    63  LEU63       0.0001
     54  N         71.6730  -52.4640    1.5310 N.3   100  SER100     -0.1217
     55  CA        72.4460  -51.6750    0.5740 C.3   100  SER100      0.1889
     56  C         73.3370  -52.6190   -0.2230 C.2   100  SER100      0.2288
     57  O         74.3810  -53.0550    0.2860 O.2   100  SER100     -0.2866
     58  CB        73.2910  -50.6300    1.3130 C.3   100  SER100      0.2089
     59  OG        74.1710  -49.9580    0.4260 O.3   100  SER100     -0.2183
     60  N         77.0080  -51.4530   -0.4590 N.3   103  TYR103     -0.1241
     61  CA        77.7270  -51.6420    0.7950 C.3   103  TYR103      0.1605
     62  C         78.1120  -53.1010    0.9930 C.2   103  TYR103      0.2264
     63  O         79.2610  -53.4120    1.3380 O.2   103  TYR103     -0.2867
     64  CB        76.8520  -51.1470    1.9480 C.3   103  TYR103      0.0534
     65  CG        77.4690  -51.2260    3.3290 C.ar  103  TYR103     -0.0201
     66  CD1       78.7070  -50.6480    3.5980 C.ar  103  TYR103     -0.0009
     67  CD2       76.7880  -51.8370    4.3740 C.ar  103  TYR103     -0.0009
     68  CE1       79.2630  -50.6970    4.8830 C.ar  103  TYR103      0.0417
     69  CE2       77.3250  -51.8890    5.6610 C.ar  103  TYR103      0.0417
     70  CZ        78.5580  -51.3200    5.9050 C.ar  103  TYR103      0.1957
     71  OH        79.0890  -51.3790    7.1690 O.3   103  TYR103     -0.2866
     72  N         68.4460  -49.8910   -0.4840 N.3   139  ILE139     -0.1245
     73  CA        69.0300  -48.6910    0.1080 C.3   139  ILE139      0.1561
     74  C         70.0690  -48.1100   -0.8420 C.2   139  ILE139      0.2260
     75  O         70.9290  -48.8370   -1.3560 O.2   139  ILE139     -0.2867
     76  CB        69.6740  -48.9980    1.4740 C.3   139  ILE139      0.0252
     77  CG1       68.6200  -49.3430    2.5220 C.3   139  ILE139      0.0019
     78  CG2       70.5450  -47.8170    1.9420 C.3   139  ILE139      0.0019
     79  CD1       69.2550  -49.9000    3.8370 C.3   139  ILE139      0.0001
     80  N         73.2160  -46.0940   -0.1770 N.3   141  SER141     -0.1217
     81  CA        74.0950  -45.6850    0.9270 C.3   141  SER141      0.1889
     82  C         74.7110  -44.3340    0.5780 C.2   141  SER141      0.2288
     83  O         75.7150  -44.2650   -0.1350 O.2   141  SER141     -0.2866
     84  CB        75.1800  -46.7270    1.1790 C.3   141  SER141      0.2089
     85  OG        74.6660  -47.8710    1.8500 O.3   141  SER141     -0.2183
     86  N         76.5370  -42.4110    2.0340 N.3   143  THR143     -0.1203
     87  CA        77.9090  -42.2570    2.4980 C.3   143  THR143      0.1994
     88  C         78.9160  -42.3090    1.3610 C.2   143  THR143      0.2617
     89  O         79.9470  -41.6360    1.4140 O.2   143  THR143     -0.2717
     90  CB        78.2170  -43.3700    3.4990 C.3   143  THR143      0.1784
     91  OG1       77.1620  -43.4360    4.4630 O.3   143  THR143     -0.2211
     92  CG2       79.5890  -43.1640    4.2040 C.3   143  THR143      0.0376
     93  N         78.6550  -43.1180    0.3420 N.am  144  PHE144     -0.1975
     94  CA        79.6540  -43.3800   -0.6790 C.3   144  PHE144      0.1639
     95  C         79.5050  -42.4660   -1.8900 C.2   144  PHE144      0.2290
     96  O         80.2590  -42.6130   -2.8560 O.2   144  PHE144     -0.2864
     97  CB        79.6070  -44.8650   -1.0520 C.3   144  PHE144      0.0560
     98  CG        79.7150  -45.7550    0.1500 C.ar  144  PHE144     -0.0200
     99  CD1       80.8440  -45.6980    0.9580 C.ar  144  PHE144     -0.0042
    100  CD2       78.6780  -46.5840    0.5170 C.ar  144  PHE144     -0.0042
    101  CE1       80.9490  -46.4840    2.1020 C.ar  144  PHE144     -0.0003
    102  CE2       78.7750  -47.3870    1.6630 C.ar  144  PHE144     -0.0003
    103  CZ        79.9130  -47.3300    2.4510 C.ar  144  PHE144     -0.0000
    104  N         70.1710  -44.0740    3.2440 N.3   169  ALA169     -0.1231
    105  CA        70.7050  -44.3420    4.5800 C.3   169  ALA169      0.1694
    106  C         72.1990  -44.0480    4.6150 C.2   169  ALA169      0.2592
    107  O         72.8270  -43.8190    3.5840 O.2   169  ALA169     -0.2718
    108  CB        70.4410  -45.7910    5.0090 C.3   169  ALA169      0.0304
    109  N         72.7680  -44.0650    5.8220 N.am  170  GLY170     -0.1957
    110  CA        74.1780  -43.7720    6.0320 C.3   170  GLY170      0.1869
    111  C         74.4290  -42.4140    6.6620 C.2   170  GLY170      0.2309
    112  O         73.6410  -41.9750    7.5020 O.2   170  GLY170     -0.2863
    113  N         65.9240  -41.9650    5.5400 N.3   197  HIS197     -0.1241
    114  CA        66.4890  -41.6540    6.8560 C.3   197  HIS197      0.1621
    115  C         66.6700  -40.1360    6.9610 C.2   197  HIS197      0.2264
    116  O         67.4670  -39.5620    6.2120 O.2   197  HIS197     -0.2867
    117  CB        67.8540  -42.3280    7.0510 C.3   197  HIS197      0.0745
    118  CG        67.8230  -43.8010    7.3670 C.ar  197  HIS197      0.0817
    119  ND1       67.4190  -44.7620    6.4620 N.ar  197  HIS197     -0.2268
    120  CD2       68.2430  -44.4800    8.4650 C.ar  197  HIS197      0.1154
    121  CE1       67.5630  -45.9640    7.0000 C.ar  197  HIS197      0.1986
    122  NE2       68.0700  -45.8210    8.2130 N.ar  197  HIS197     -0.2212
    123  N         67.6810  -37.5550   11.9410 N.3   200  GLU200     -0.1245
    124  CA        68.3720  -38.3620   12.9300 C.3   200  GLU200      0.1567
    125  C         69.6180  -37.6060   13.3970 C.2   200  GLU200      0.2260
    126  O         69.6200  -37.0050   14.4780 O.2   200  GLU200     -0.2867
    127  CB        68.6940  -39.7350   12.3210 C.3   200  GLU200      0.0388
    128  CG        69.3350  -40.7070   13.2700 C.3   200  GLU200      0.1160
    129  CD        69.9310  -41.9160   12.5590 C.2   200  GLU200      0.3649
    130  OE1       70.0340  -41.9320   11.2990 O.co2 200  GLU200     -0.2457
    131  OE2       70.3010  -42.8620   13.2780 O.co2 200  GLU200     -0.2457
    132  N         63.4520  -42.6440   11.5530 N.3   221  HIS221     -0.1241
    133  CA        63.7800  -41.8840   12.7650 C.3   221  HIS221      0.1621
    134  C         62.9580  -40.6050   12.8810 C.2   221  HIS221      0.2264
    135  O         61.9740  -40.5740   13.6320 O.2   221  HIS221     -0.2867
    136  CB        65.2890  -41.5880   12.8370 C.3   221  HIS221      0.0745
    137  CG        66.1320  -42.8190   12.6900 C.ar  221  HIS221      0.0817
    138  ND1       66.1020  -43.8500   13.6070 N.ar  221  HIS221     -0.2268
    139  CD2       66.9870  -43.2080   11.7120 C.ar  221  HIS221      0.1154
    140  CE1       66.9150  -44.8140   13.2090 C.ar  221  HIS221      0.1986
    141  NE2       67.4660  -44.4510   12.0630 N.ar  221  HIS221     -0.2212
    142  N         68.2060  -47.8890   18.8270 N.3   248  SER248     -0.1217
    143  CA        69.1200  -47.2950   17.8630 C.3   248  SER248      0.1889
    144  C         69.4040  -45.8340   18.2040 C.2   248  SER248      0.2288
    145  O         70.5650  -45.4090   18.2260 O.2   248  SER248     -0.2866
    146  CB        68.5410  -47.4190   16.4510 C.3   248  SER248      0.2089
    147  OG        69.3650  -46.7220   15.5350 O.3   248  SER248     -0.2183
    148  N         73.1980  -44.2520   18.9200 N.3   252  THR252     -0.1218
    149  CA        73.8530  -43.2300   18.1050 C.3   252  THR252      0.1862
    150  C         74.0200  -41.9060   18.8480 C.2   252  THR252      0.2287
    151  O         74.5460  -40.9520   18.2640 O.2   252  THR252     -0.2866
    152  CB        73.0620  -42.9690   16.8080 C.3   252  THR252      0.1770
    153  OG1       71.7140  -42.6310   17.1380 O.3   252  THR252     -0.2211
    154  CG2       73.0460  -44.1900   15.9050 C.3   252  THR252      0.0375
    155  N         65.7940  -51.6630   13.5720 N.3   278  ASP278     -0.1225
    156  CA        66.9010  -50.9960   12.8570 C.3   278  ASP278      0.1805
    157  C         68.0220  -51.9760   12.4970 C.2   278  ASP278      0.2597
    158  O         67.9720  -52.5670   11.4180 O.2   278  ASP278     -0.2718
    159  CB        67.4720  -49.7830   13.6250 C.3   278  ASP278      0.1424
    160  CG        68.0480  -48.7160   12.6830 C.2   278  ASP278      0.3668
    161  OD1       68.1060  -48.9880   11.4740 O.co2 278  ASP278     -0.2456
    162  OD2       68.4540  -47.6240   13.1440 O.co2 278  ASP278     -0.2456
    163  N         69.0460  -52.1440   13.3510 N.am  279  ASP279     -0.1974
    164  CA        70.1320  -53.1040   13.1200 C.3   279  ASP279      0.1709
    165  C         70.1990  -54.0530   14.3130 C.2   279  ASP279      0.2293
    166  O         71.0750  -53.9060   15.1810 O.2   279  ASP279     -0.2864
    167  CB        71.4870  -52.4180   12.9150 C.3   279  ASP279      0.1436
    168  CG        71.4730  -51.4200   11.7730 C.2   279  ASP279      0.3671
    169  OD1       71.2380  -50.2180   12.0370 O.co2 279  ASP279     -0.2456
    170  OD2       71.6670  -51.8490   10.6210 O.co2 279  ASP279     -0.2456
@<TRIPOS>BOND
     1    96    95    2
     2    95    94    1
     3    75    74    2
     4    97    94    1
     5    97    98    1
     6    74    73    1
     7    94    93    1
     8    72    73    1
     9    60    61    1
    10    56    57    2
    11    56    55    1
    12    80    81    1
    13    83    82    2
    14    73    76    1
    15    98   100   ar
    16    98    99   ar
    17    93    88   am
    18    59    58    1
    19   100   102   ar
    20    55    58    1
    21    55    54    1
    22    82    81    1
    23    61    62    1
    24    61    64    1
    25    81    84    1
    26    99   101   ar
    27    62    63    2
    28    84    85    1
    29    88    89    2
    30    88    87    1
    31    76    78    1
    32    76    77    1
    33   102   103   ar
    34    64    65    1
    35    86    87    1
    36   101   103   ar
    37    87    90    1
    38    77    79    1
    39   104   105    1
    40    65    66   ar
    41    65    67   ar
    42    90    92    1
    43    90    91    1
    44    18    16   ar
    45   107   106    2
    46    66    68   ar
    47    67    69   ar
    48   105   106    1
    49   105   108    1
    50    16    15    1
    51    16    17   ar
    52   106   109   am
    53    68    70   ar
    54    15    12    1
    55   113   114    1
    56    69    70   ar
    57   109   110    1
    58    70    71    1
    59   110   111    1
    60   116   115    2
    61    11    12    1
    62    12    13    1
    63   119   121   ar
    64   119   118   ar
    65   111   112    2
    66   114   115    1
    67   114   117    1
    68   121   122   ar
    69   117   118    1
    70     7     9   ar
    71     7     6   ar
    72     9    10   ar
    73   118   120   ar
    74    13    14    2
    75     2     3    1
    76     2     5    1
    77     2     1    1
    78     3     4    2
    79     6     5    1
    80     6     8   ar
    81   122   120   ar
    82    10     8   ar
    83    44    43    1
    84    49    48    2
    85    53    51    1
    86    48    47    1
    87    50    51    1
    88    50    47    1
    89    45    43    1
    90    43    42    1
    91    42    39    1
    92    51    52    1
    93    41    40    2
    94   170   168   ar
    95    47    46    1
    96    26    24    1
    97    40    39    1
    98   130   129   ar
    99   158   157    2
   100    39    38    1
   101   161   160   ar
   102   132   133    1
   103    24    25    1
   104    24    23    1
   105   139   141   ar
   106   139   137   ar
   107   168   169   ar
   108   168   167    1
   109   123   124    1
   110   141   140   ar
   111   127   124    1
   112   127   128    1
   113   157   156    1
   114   157   163   am
   115   129   128    1
   116   129   131   ar
   117   160   162   ar
   118   160   159    1
   119   137   136    1
   120   137   138   ar
   121    38    29   am
   122   133   136    1
   123   133   134    1
   124   156   155    1
   125   156   159    1
   126   134   135    2
   127    23    20    1
   128    22    21    2
   129   167   164    1
   130   124   125    1
   131    21    20    1
   132   164   163    1
   133   164   165    1
   134   140   138   ar
   135   125   126    2
   136    20    19    1
   137    29    30    2
   138    29    28    1
   139    35    33   ar
   140    35    37   ar
   141    33    32   ar
   142   165   166    2
   143    27    28    1
   144    37    36   ar
   145    28    31    1
   146    32    31    1
   147    32    34   ar
   148   147   146    1
   149   154   152    1
   150    36    34   ar
   151   146   143    1
   152   152   153    1
   153   152   149    1
   154   143   144    1
   155   143   142    1
   156   149   150    1
   157   149   148    1
   158   144   145    2
   159   151   150    2
