@<TRIPOS>MOLECULE
tmp/6n9mA00.pdb
 170 159 0 0 0
SMALL
GASTEIGER

@<TRIPOS>ATOM
      1  N          1.8810    1.2060   55.2960 N.3    13  HIS13      -0.1241
      2  CA         2.7170    0.5610   54.2900 C.3    13  HIS13       0.1621
      3  C          1.8360    0.0800   53.1460 C.2    13  HIS13       0.2264
      4  O          1.0400   -0.8570   53.3080 O.2    13  HIS13      -0.2867
      5  CB         3.4650   -0.6350   54.8730 C.3    13  HIS13       0.0745
      6  CG         4.4480   -0.2980   55.9570 C.ar   13  HIS13       0.0817
      7  ND1        5.8140   -0.3990   55.7850 N.ar   13  HIS13      -0.2268
      8  CD2        4.2580    0.0810   57.2430 C.ar   13  HIS13       0.1154
      9  CE1        6.4240   -0.0890   56.9160 C.ar   13  HIS13       0.1986
     10  NE2        5.5020    0.1930   57.8200 N.ar   13  HIS13      -0.2212
     11  N          2.8050   -1.6590   50.6520 N.3    15  ASP15      -0.1239
     12  CA         3.1740   -3.0360   50.3500 C.3    15  ASP15       0.1674
     13  C          2.9320   -3.9980   51.5060 C.2    15  ASP15       0.2266
     14  O          3.2150   -5.2010   51.3610 O.2    15  ASP15      -0.2867
     15  CB         4.6040   -3.1230   49.7910 C.3    15  ASP15       0.1410
     16  CG         5.6130   -2.2840   50.5760 C.2    15  ASP15       0.3668
     17  OD1        5.2290   -1.6000   51.5690 O.co2  15  ASP15      -0.2456
     18  OD2        6.8120   -2.3140   50.1900 O.co2  15  ASP15      -0.2456
     19  N          9.0420   -9.2860   65.9840 N.3    55  LEU55      -0.1245
     20  CA         8.9650   -8.4310   64.8030 C.3    55  LEU55       0.1561
     21  C          9.2710   -9.2140   63.5280 C.2    55  LEU55       0.2260
     22  O          8.5220   -9.1370   62.5470 O.2    55  LEU55      -0.2867
     23  CB         9.9150   -7.2460   64.9730 C.3    55  LEU55       0.0270
     24  CG        10.1230   -6.3540   63.7480 C.3    55  LEU55       0.0019
     25  CD1        8.7910   -5.8850   63.2310 C.3    55  LEU55       0.0001
     26  CD2       11.0140   -5.1650   64.0980 C.3    55  LEU55       0.0001
     27  N          6.4180  -11.3280   62.3320 N.3    58  PHE58      -0.1227
     28  CA         5.3880  -10.4870   61.7260 C.3    58  PHE58       0.1736
     29  C          5.7520  -10.1070   60.2940 C.2    58  PHE58       0.2595
     30  O          4.8990  -10.1570   59.3960 O.2    58  PHE58      -0.2718
     31  CB         5.1960   -9.2410   62.5980 C.3    58  PHE58       0.0547
     32  CG         4.1910   -8.2400   62.0690 C.ar   58  PHE58      -0.0202
     33  CD1        4.6030   -7.1830   61.2600 C.ar   58  PHE58      -0.0042
     34  CD2        2.8680   -8.2990   62.4590 C.ar   58  PHE58      -0.0042
     35  CE1        3.7000   -6.2390   60.8020 C.ar   58  PHE58      -0.0003
     36  CE2        1.9470   -7.3520   62.0040 C.ar   58  PHE58      -0.0003
     37  CZ         2.3720   -6.3130   61.1830 C.ar   58  PHE58      -0.0000
     38  N          7.0160   -9.7420   60.0610 N.am   59  LEU59      -0.1980
     39  CA         7.4340   -9.2830   58.7360 C.3    59  LEU59       0.1596
     40  C          7.1880  -10.3410   57.6660 C.2    59  LEU59       0.2287
     41  O          6.8830   -9.9970   56.5170 O.2    59  LEU59      -0.2864
     42  CB         8.9020   -8.8480   58.7540 C.3    59  LEU59       0.0297
     43  CG         9.2550   -7.6760   59.6770 C.3    59  LEU59       0.0022
     44  CD1       10.7520   -7.4740   59.7350 C.3    59  LEU59       0.0001
     45  CD2        8.5500   -6.3950   59.2160 C.3    59  LEU59       0.0001
     46  N          4.0020  -10.2940   55.2330 N.3    62  LEU62      -0.1245
     47  CA         3.8730   -9.4780   54.0260 C.3    62  LEU62       0.1561
     48  C          4.3530  -10.1920   52.7670 C.2    62  LEU62       0.2260
     49  O          4.1140   -9.6900   51.6610 O.2    62  LEU62      -0.2867
     50  CB         4.6610   -8.1700   54.1730 C.3    62  LEU62       0.0270
     51  CG         4.0910   -7.0680   55.0680 C.3    62  LEU62       0.0019
     52  CD1        4.1880   -7.4110   56.5700 C.3    62  LEU62       0.0001
     53  CD2        4.8330   -5.7660   54.7570 C.3    62  LEU62       0.0001
     54  N          8.5460   -0.0610   50.1280 N.3    99  SER99      -0.1217
     55  CA         9.9110   -0.4860   49.8550 C.3    99  SER99       0.1889
     56  C          9.9690   -0.9840   48.4160 C.2    99  SER99       0.2288
     57  O          9.5460   -2.1180   48.1370 O.2    99  SER99      -0.2866
     58  CB        10.3000   -1.6030   50.8290 C.3    99  SER99       0.2089
     59  OG        11.5920   -2.1390   50.5250 O.3    99  SER99      -0.2183
     60  N         11.8030   -4.3250   48.0930 N.3   102  TYR102     -0.1241
     61  CA        11.0100   -5.4400   48.5960 C.3   102  TYR102      0.1605
     62  C          9.9100   -5.8210   47.6120 C.2   102  TYR102      0.2264
     63  O          9.6960   -7.0110   47.3400 O.2   102  TYR102     -0.2867
     64  CB        10.4240   -5.0510   49.9530 C.3   102  TYR102      0.0534
     65  CG         9.6130   -6.1240   50.6420 C.ar  102  TYR102     -0.0201
     66  CD1       10.1770   -7.3650   50.9380 C.ar  102  TYR102     -0.0009
     67  CD2        8.2940   -5.8910   51.0190 C.ar  102  TYR102     -0.0009
     68  CE1        9.4340   -8.3500   51.5830 C.ar  102  TYR102      0.0417
     69  CE2        7.5510   -6.8670   51.6710 C.ar  102  TYR102      0.0417
     70  CZ         8.1330   -8.0910   51.9530 C.ar  102  TYR102      0.1957
     71  OH         7.4070   -9.0620   52.6040 O.3   102  TYR102     -0.2866
     72  N         10.8510    3.5570   51.4190 N.3   136  ILE136     -0.1245
     73  CA        11.4120    2.7640   52.5120 C.3   136  ILE136      0.1561
     74  C         12.6420    2.0350   52.0070 C.2   136  ILE136      0.2260
     75  O         12.6110    1.4290   50.9260 O.2   136  ILE136     -0.2867
     76  CB        10.4110    1.7240   53.0390 C.3   136  ILE136      0.0252
     77  CG1        9.2230    2.4030   53.7050 C.3   136  ILE136      0.0019
     78  CG2       11.0870    0.7680   54.0210 C.3   136  ILE136      0.0019
     79  CD1        8.1170    1.4220   54.0300 C.3   136  ILE136      0.0001
     80  N         14.4900   -1.2550   53.0940 N.3   137  SER137     -0.1217
     81  CA        14.2450   -2.4450   53.9070 C.3   137  SER137      0.1889
     82  C         15.5760   -2.9220   54.4890 C.2   137  SER137      0.2288
     83  O         16.3610   -3.6000   53.8180 O.2   137  SER137     -0.2866
     84  CB        13.5570   -3.5250   53.0770 C.3   137  SER137      0.2089
     85  OG        12.1920   -3.2080   52.8220 O.3   137  SER137     -0.2183
     86  N         16.4080   -5.1350   56.3960 N.3   139  THR139     -0.1203
     87  CA        16.5380   -6.5840   56.4840 C.3   139  THR139      0.1994
     88  C         17.4730   -7.1580   55.4300 C.2   139  THR139      0.2617
     89  O         18.0880   -8.2090   55.6510 O.2   139  THR139     -0.2717
     90  CB        15.1320   -7.1420   56.2640 C.3   139  THR139      0.1784
     91  OG1       14.2220   -6.4390   57.1190 O.3   139  THR139     -0.2211
     92  CG2       15.0530   -8.6560   56.5330 C.3   139  THR139      0.0376
     93  N         17.5840   -6.4990   54.2830 N.am  140  PHE140     -0.1975
     94  CA        18.3300   -7.0360   53.1550 C.3   140  PHE140      0.1639
     95  C         19.7370   -6.4680   53.0530 C.2   140  PHE140      0.2290
     96  O         20.4570   -6.7860   52.1000 O.2   140  PHE140     -0.2864
     97  CB        17.5080   -6.8780   51.8750 C.3   140  PHE140      0.0560
     98  CG        16.1280   -7.4400   52.0120 C.ar  140  PHE140     -0.0200
     99  CD1       15.9420   -8.7990   52.2290 C.ar  140  PHE140     -0.0042
    100  CD2       15.0140   -6.6130   52.0050 C.ar  140  PHE140     -0.0042
    101  CE1       14.6660   -9.3250   52.3840 C.ar  140  PHE140     -0.0003
    102  CE2       13.7390   -7.1350   52.1670 C.ar  140  PHE140     -0.0003
    103  CZ        13.5670   -8.4890   52.3590 C.ar  140  PHE140     -0.0000
    104  N         12.8930    0.5610   57.5030 N.3   165  ALA165     -0.1231
    105  CA        11.9590   -0.3940   58.0830 C.3   165  ALA165      0.1694
    106  C         12.5030   -1.8060   57.9420 C.2   165  ALA165      0.2592
    107  O         13.5200   -2.0400   57.2820 O.2   165  ALA165     -0.2718
    108  CB        10.5520   -0.2630   57.4760 C.3   165  ALA165      0.0304
    109  N         11.8120   -2.7480   58.5810 N.am  166  GLY166     -0.1957
    110  CA        12.2330   -4.1420   58.5910 C.3   166  GLY166      0.1869
    111  C         12.8430   -4.5750   59.9180 C.2   166  GLY166      0.2309
    112  O         12.4160   -4.1180   60.9840 O.2   166  GLY166     -0.2863
    113  N         11.7080    3.8580   61.5140 N.3   193  HIS193     -0.1241
    114  CA        11.2080    2.8830   62.4780 C.3   193  HIS193      0.1621
    115  C         12.2940    2.6720   63.5280 C.2   193  HIS193      0.2264
    116  O         13.3980    2.2210   63.1930 O.2   193  HIS193     -0.2867
    117  CB        10.9670    1.5420   61.7850 C.3   193  HIS193      0.0745
    118  CG         9.7090    1.4390   60.9710 C.ar  193  HIS193      0.0817
    119  ND1        9.5050    2.1310   59.7920 N.ar  193  HIS193     -0.2268
    120  CD2        8.6400    0.6210   61.1090 C.ar  193  HIS193      0.1154
    121  CE1        8.3440    1.7760   59.2660 C.ar  193  HIS193      0.1986
    122  NE2        7.7970    0.8630   60.0480 N.ar  193  HIS193     -0.2212
    123  N         11.1820   -0.0530   68.5150 N.3   196  GLU196     -0.1245
    124  CA        10.1060   -1.0250   68.4650 C.3   196  GLU196      0.1567
    125  C         10.6410   -2.3220   69.0400 C.2   196  GLU196      0.2260
    126  O         10.2370   -2.7320   70.1300 O.2   196  GLU196     -0.2867
    127  CB         9.6430   -1.1930   67.0150 C.3   196  GLU196      0.0388
    128  CG         8.5490   -2.2280   66.7840 C.3   196  GLU196      0.1160
    129  CD         8.2070   -2.3930   65.3130 C.2   196  GLU196      0.3649
    130  OE1        9.0430   -2.0320   64.4620 O.co2 196  GLU196     -0.2457
    131  OE2        7.0970   -2.8880   65.0080 O.co2 196  GLU196     -0.2457
    132  N          6.8460    4.1560   65.6480 N.3   217  HIS217     -0.1241
    133  CA         6.6900    3.4370   66.9110 C.3   217  HIS217      0.1621
    134  C          7.3100    4.1960   68.0790 C.2   217  HIS217      0.2264
    135  O          6.5870    4.8510   68.8430 O.2   217  HIS217     -0.2867
    136  CB         7.2120    1.9980   66.8310 C.3   217  HIS217      0.0745
    137  CG         6.6200    1.2200   65.7030 C.ar  217  HIS217      0.0817
    138  ND1        5.2790    0.9220   65.6360 N.ar  217  HIS217     -0.2268
    139  CD2        7.1820    0.6990   64.5850 C.ar  217  HIS217      0.1154
    140  CE1        5.0400    0.2370   64.5310 C.ar  217  HIS217      0.1986
    141  NE2        6.1770    0.1070   63.8670 N.ar  217  HIS217     -0.2212
    142  N         -0.6430   -3.0520   65.5500 N.3   243  SER243     -0.1217
    143  CA         0.6500   -3.5530   65.0980 C.3   243  SER243      0.1889
    144  C          1.5410   -3.9510   66.2710 C.2   243  SER243      0.2288
    145  O          2.1310   -5.0350   66.2760 O.2   243  SER243     -0.2866
    146  CB         1.3390   -2.4820   64.2460 C.3   243  SER243      0.2089
    147  OG         2.6550   -2.8900   63.8910 O.3   243  SER243     -0.2183
    148  N          3.1210   -7.7010   66.8210 N.3   247  THR247     -0.1218
    149  CA         4.5470   -8.0030   66.7910 C.3   247  THR247      0.1862
    150  C          5.0810   -8.3920   68.1590 C.2   247  THR247      0.2287
    151  O          6.2950   -8.5790   68.2990 O.2   247  THR247     -0.2866
    152  CB         5.3680   -6.7930   66.3190 C.3   247  THR247      0.1770
    153  OG1        5.0750   -5.6750   67.1690 O.3   247  THR247     -0.2211
    154  CG2        5.0670   -6.4210   64.8770 C.3   247  THR247      0.0375
    155  N         -0.2580    1.0540   60.1930 N.3   273  ASP273     -0.1225
    156  CA         0.9070    0.2200   59.8650 C.3   273  ASP273      0.1805
    157  C          0.6560   -0.6410   58.6270 C.2   273  ASP273      0.2597
    158  O          0.9120   -0.1840   57.5120 O.2   273  ASP273     -0.2718
    159  CB         1.4700   -0.5530   61.0690 C.3   273  ASP273      0.1424
    160  CG         2.9730   -0.6790   61.0350 C.2   273  ASP273      0.3668
    161  OD1        3.5950   -0.2730   60.0380 O.co2 273  ASP273     -0.2456
    162  OD2        3.5520   -1.1890   62.0110 O.co2 273  ASP273     -0.2456
    163  N          0.1350   -1.8610   58.7840 N.am  274  ASP274     -0.1974
    164  CA        -0.0850   -2.7750   57.6540 C.3   274  ASP274      0.1709
    165  C         -1.5200   -3.2850   57.6730 C.2   274  ASP274      0.2293
    166  O         -1.7750   -4.3970   58.1510 O.2   274  ASP274     -0.2864
    167  CB         0.8810   -3.9610   57.7270 C.3   274  ASP274      0.1436
    168  CG         2.3450   -3.5300   57.6990 C.2   274  ASP274      0.3671
    169  OD1        2.9050   -3.3570   56.6030 O.co2 274  ASP274     -0.2456
    170  OD2        2.9480   -3.3560   58.7800 O.co2 274  ASP274     -0.2456
@<TRIPOS>BOND
     1    63    62    2
     2    62    61    1
     3    60    61    1
     4    57    56    2
     5    56    55    1
     6    61    64    1
     7    15    12    1
     8    15    16    1
     9    55    54    1
    10    55    58    1
    11    64    65    1
    12    18    16   ar
    13    12    11    1
    14    12    13    1
    15    59    58    1
    16    16    17   ar
    17    65    66   ar
    18    65    67   ar
    19    75    74    2
    20    66    68   ar
    21    67    69   ar
    22    14    13    2
    23    72    73    1
    24    68    70   ar
    25    49    48    2
    26    69    70   ar
    27    97    98    1
    28    97    94    1
    29    70    71    1
    30   100    98   ar
    31   100   102   ar
    32    74    73    1
    33    98    99   ar
    34    96    95    2
    35   102   103   ar
    36    99   101   ar
    37   103   101   ar
    38    73    76    1
    39    48    47    1
    40    85    84    1
    41    76    77    1
    42    76    78    1
    43    95    94    1
    44    84    81    1
    45    80    81    1
    46     3     4    2
    47     3     2    1
    48    94    93    1
    49    77    79    1
    50    83    82    2
    51    81    82    1
    52    47    50    1
    53    47    46    1
    54    50    51    1
    55    93    88   am
    56     2     5    1
    57     2     1    1
    58    53    51    1
    59     5     6    1
    60    51    52    1
    61    88    89    2
    62    88    87    1
    63     7     6   ar
    64     7     9   ar
    65     6     8   ar
    66    90    87    1
    67    90    92    1
    68    90    91    1
    69    86    87    1
    70    41    40    2
    71   169   168   ar
    72     9    10   ar
    73     8    10   ar
    74   107   106    2
    75   108   105    1
    76   104   105    1
    77   158   157    2
    78   164   165    1
    79   164   167    1
    80   164   163    1
    81    40    39    1
    82   165   166    2
    83   168   167    1
    84   168   170   ar
    85   106   105    1
    86   106   109   am
    87   109   110    1
    88   110   111    1
    89   157   163   am
    90   157   156    1
    91    39    42    1
    92    39    38    1
    93    42    43    1
    94    45    43    1
    95   121   119   ar
    96   121   122   ar
    97    30    29    2
    98    43    44    1
    99   119   118   ar
   100   156   155    1
   101   156   159    1
   102   111   112    2
   103   161   160   ar
   104   122   120   ar
   105    38    29   am
   106    29    28    1
   107    35    37   ar
   108    35    33   ar
   109   118   120   ar
   110   118   117    1
   111   160   159    1
   112   160   162   ar
   113    37    36   ar
   114    33    32   ar
   115   113   114    1
   116    28    27    1
   117    28    31    1
   118   117   114    1
   119    36    34   ar
   120    32    34   ar
   121    32    31    1
   122   114   115    1
   123    22    21    2
   124   116   115    2
   125    25    24    1
   126    21    20    1
   127    24    26    1
   128    24    23    1
   129   141   140   ar
   130   141   139   ar
   131   147   146    1
   132   146   143    1
   133   130   129   ar
   134   140   138   ar
   135   139   137   ar
   136    20    23    1
   137    20    19    1
   138   154   152    1
   139   131   129   ar
   140   143   142    1
   141   143   144    1
   142   129   128    1
   143   138   137   ar
   144   132   133    1
   145   137   136    1
   146   144   145    2
   147   152   149    1
   148   152   153    1
   149   128   127    1
   150   149   148    1
   151   149   150    1
   152   136   133    1
   153   133   134    1
   154   127   124    1
   155   134   135    2
   156   150   151    2
   157   124   123    1
   158   124   125    1
   159   125   126    2
