@<TRIPOS>MOLECULE
tmp/6n9pA00.pdb
 196 183 0 0 0
SMALL
GASTEIGER

@<TRIPOS>ATOM
      1  N         26.0900    1.4880   -0.5810 N.3    20  LEU20      -0.1231
      2  CA        25.6050    2.8030   -1.0380 C.3    20  LEU20       0.1693
      3  C         26.5050    3.9590   -0.6110 C.2    20  LEU20       0.2593
      4  O         26.5850    4.9760   -1.2930 O.2    20  LEU20      -0.2718
      5  CB        24.1780    3.0610   -0.5340 C.3    20  LEU20       0.0284
      6  CG        23.0580    2.1880   -1.1140 C.3    20  LEU20       0.0019
      7  CD1       21.7380    2.4310   -0.3910 C.3    20  LEU20       0.0001
      8  CD2       22.9010    2.4390   -2.6050 C.3    20  LEU20       0.0001
      9  N         27.1650    3.8220    0.5310 N.am   21  GLY21      -0.1942
     10  CA        28.0910    4.8570    0.9800 C.3    21  GLY21       0.2014
     11  C         28.4130    4.8010    2.4550 C.2    21  GLY21       0.2639
     12  O         27.9320    3.9270    3.1790 O.2    21  GLY21      -0.2714
     13  N         29.2380    5.7440    2.9000 N.am   22  THR22      -0.1950
     14  CA        29.6220    5.8230    4.3060 C.3    22  THR22       0.1897
     15  C         29.4510    7.2340    4.8870 C.2    22  THR22       0.2313
     16  O         30.0720    8.1900    4.4180 O.2    22  THR22      -0.2863
     17  CB        31.0760    5.3910    4.4970 C.3    22  THR22       0.1794
     18  OG1       31.2450    4.0550    4.0090 O.3    22  THR22      -0.2208
     19  CG2       31.4530    5.4460    5.9640 C.3    22  THR22       0.0378
     20  N         25.8880    2.3960    4.6200 N.3    28  VAL28      -0.1245
     21  CA        24.4930    2.1760    4.2610 C.3    28  VAL28       0.1561
     22  C         24.4220    1.2480    3.0560 C.2    28  VAL28       0.2260
     23  O         25.1540    1.4360    2.0840 O.2    28  VAL28      -0.2867
     24  CB        23.7640    3.4880    3.9020 C.3    28  VAL28       0.0252
     25  CG1       22.2980    3.2090    3.5950 C.3    28  VAL28       0.0019
     26  CG2       23.8810    4.4860    5.0200 C.3    28  VAL28       0.0019
     27  N         16.6760   -0.1840    2.5050 N.3    40  ALA40      -0.1245
     28  CA        17.9760    0.3750    2.7860 C.3    40  ALA40       0.1562
     29  C         18.3710   -0.0660    4.1890 C.2    40  ALA40       0.2260
     30  O         17.5220   -0.2100    5.0660 O.2    40  ALA40      -0.2867
     31  CB        17.9300    1.8970    2.6940 C.3    40  ALA40       0.0290
     32  N         21.0240    0.8720    7.1950 N.3    42  LYS42      -0.1245
     33  CA        22.0340    1.7760    7.7100 C.3    42  LYS42       0.1561
     34  C         22.6210    1.1750    8.9570 C.2    42  LYS42       0.2260
     35  O         21.9080    0.8790    9.9040 O.2    42  LYS42      -0.2867
     36  CB        21.4260    3.1450    7.9920 C.3    42  LYS42       0.0271
     37  CG        22.3380    4.1350    8.7180 C.3    42  LYS42       0.0035
     38  CD        21.9840    5.5390    8.2680 C.3    42  LYS42       0.0206
     39  CE        22.1390    6.5920    9.3320 C.3    42  LYS42       0.1093
     40  NZ        21.6430    7.9210    8.8020 N.3    42  LYS42      -0.1314
     41  N         18.0630    5.8580   21.3500 N.3    54  PHE54      -0.1241
     42  CA        17.5990    5.7480   19.9830 C.3    54  PHE54       0.1605
     43  C         16.5500    4.6520   19.8260 C.2    54  PHE54       0.2264
     44  O         15.5030    4.8760   19.2290 O.2    54  PHE54      -0.2867
     45  CB        18.7250    5.5030   18.9760 C.3    54  PHE54       0.0534
     46  CG        18.2100    5.1630   17.6060 C.ar   54  PHE54      -0.0203
     47  CD1       17.5880    6.1330   16.8300 C.ar   54  PHE54      -0.0042
     48  CD2       18.2760    3.8610   17.1230 C.ar   54  PHE54      -0.0042
     49  CE1       17.0690    5.8300   15.5690 C.ar   54  PHE54      -0.0003
     50  CE2       17.7600    3.5410   15.8660 C.ar   54  PHE54      -0.0003
     51  CZ        17.1470    4.5400   15.0850 C.ar   54  PHE54      -0.0000
     52  N          9.0760    6.5080   16.1440 N.3    61  MET61      -0.1245
     53  CA         9.2760    6.7520   14.7220 C.3    61  MET61       0.1570
     54  C          8.4790    5.7980   13.8150 C.2    61  MET61       0.2261
     55  O          8.0360    6.1870   12.7460 O.2    61  MET61      -0.2867
     56  CB        10.7690    6.6970   14.3990 C.3    61  MET61       0.0387
     57  CG        11.5590    7.8780   14.9630 C.3    61  MET61       0.0595
     58  SD        13.3360    7.5780   15.0210 S.3    61  MET61      -0.1393
     59  CE        13.7780    7.8740   13.3030 C.3    61  MET61       0.0692
     60  N         10.5730    9.2670    4.6090 N.3    70  VAL70      -0.1245
     61  CA        11.2130    7.9630    4.5120 C.3    70  VAL70       0.1561
     62  C         10.6700    7.0480    5.6270 C.2    70  VAL70       0.2260
     63  O         10.8170    7.3400    6.8250 O.2    70  VAL70      -0.2867
     64  CB        12.7580    8.0480    4.5980 C.3    70  VAL70       0.0252
     65  CG1       13.3610    6.6460    4.6230 C.3    70  VAL70       0.0019
     66  CG2       13.3240    8.8410    3.4210 C.3    70  VAL70       0.0019
     67  N         10.4730    4.2280    8.1760 N.3    72  LEU72      -0.1245
     68  CA        11.2590    3.3080    8.9720 C.3    72  LEU72       0.1561
     69  C         10.4960    2.0010    9.0470 C.2    72  LEU72       0.2260
     70  O          9.3290    1.9830    9.4450 O.2    72  LEU72      -0.2867
     71  CB        11.4490    3.8360   10.3850 C.3    72  LEU72       0.0270
     72  CG        11.9760    2.8150   11.3980 C.3    72  LEU72       0.0019
     73  CD1       13.4310    2.5250   11.1470 C.3    72  LEU72       0.0001
     74  CD2       11.8090    3.3280   12.8190 C.3    72  LEU72       0.0001
     75  N         19.4740    0.2110   11.0350 N.3    84  ILE84      -0.1245
     76  CA        18.2050    0.8990   10.8360 C.3    84  ILE84       0.1561
     77  C         17.6880    0.5330    9.4420 C.2    84  ILE84       0.2260
     78  O         18.3850    0.7470    8.4510 O.2    84  ILE84      -0.2867
     79  CB        18.3530    2.4490   10.8930 C.3    84  ILE84       0.0252
     80  CG1       19.0590    2.9080   12.1670 C.3    84  ILE84       0.0019
     81  CG2       16.9960    3.1200   10.7840 C.3    84  ILE84       0.0019
     82  CD1       19.2320    4.4080   12.2250 C.3    84  ILE84       0.0001
     83  N         14.8920    0.8650    6.3990 N.3    86  THR86      -0.1203
     84  CA        13.9430    1.8410    5.8560 C.3    86  THR86       0.1994
     85  C         13.5820    1.5430    4.4100 C.2    86  THR86       0.2618
     86  O         14.1800    0.6730    3.7830 O.2    86  THR86      -0.2717
     87  CB        14.5450    3.2570    5.8520 C.3    86  THR86       0.1784
     88  OG1       15.4990    3.3780    4.7810 O.3    86  THR86      -0.2211
     89  CG2       15.2080    3.5580    7.1830 C.3    86  THR86       0.0376
     90  N         12.6100    2.2770    3.8690 N.am   87  GLU87      -0.1965
     91  CA        12.3410    2.1600    2.4380 C.3    87  GLU87       0.1733
     92  C         13.5970    2.5870    1.6840 C.2    87  GLU87       0.2616
     93  O         14.4400    3.3210    2.2220 O.2    87  GLU87      -0.2715
     94  CB        11.1020    2.9640    2.0090 C.3    87  GLU87       0.0429
     95  CG        11.3290    4.4450    1.6970 C.3    87  GLU87       0.1163
     96  CD        10.0220    5.1800    1.4710 C.2    87  GLU87       0.3649
     97  OE1        9.4180    5.6530    2.4570 O.co2  87  GLU87      -0.2457
     98  OE2        9.5770    5.2720    0.3180 O.co2  87  GLU87      -0.2457
     99  N         13.7400    2.0980    0.4560 N.am   88  TYR88      -0.1960
    100  CA        14.9320    2.3540   -0.3540 C.3    88  TYR88       0.1771
    101  C         14.6990    3.4980   -1.3330 C.2    88  TYR88       0.2619
    102  O         13.7550    3.4690   -2.1140 O.2    88  TYR88      -0.2715
    103  CB        15.2990    1.0910   -1.1200 C.3    88  TYR88       0.0574
    104  CG        16.3760    1.2400   -2.1800 C.ar   88  TYR88      -0.0198
    105  CD1       17.6300    1.7640   -1.8800 C.ar   88  TYR88      -0.0009
    106  CD2       16.1480    0.8060   -3.4720 C.ar   88  TYR88      -0.0009
    107  CE1       18.6160    1.8740   -2.8610 C.ar   88  TYR88       0.0417
    108  CE2       17.1170    0.9140   -4.4540 C.ar   88  TYR88       0.0417
    109  CZ        18.3430    1.4380   -4.1480 C.ar   88  TYR88       0.1957
    110  OH        19.2860    1.5180   -5.1480 O.3    88  TYR88      -0.2866
    111  N         15.5800    4.4860   -1.3020 N.am   89  MET89      -0.1977
    112  CA        15.4720    5.6500   -2.1660 C.3    89  MET89       0.1605
    113  C         16.5440    5.5620   -3.2500 C.2    89  MET89       0.2287
    114  O         17.6870    5.9160   -3.0050 O.2    89  MET89      -0.2864
    115  CB        15.6410    6.9250   -1.3270 C.3    89  MET89       0.0413
    116  CG        14.6010    7.0710   -0.2070 C.3    89  MET89       0.0598
    117  SD        12.9530    7.3260   -0.8930 S.3    89  MET89      -0.1393
    118  CE        13.0410    9.0730   -1.2860 C.3    89  MET89       0.0692
    119  N         19.1650    8.4490   -4.3670 N.3    92  GLY92      -0.1210
    120  CA        20.1100    8.9540   -3.3640 C.3    92  GLY92       0.1956
    121  C         19.7920   10.3180   -2.7720 C.2    92  GLY92       0.2612
    122  O         18.6620   10.7730   -2.8030 O.2    92  GLY92      -0.2717
    123  N         20.8070   10.9780   -2.2350 N.am   93  CYS93      -0.1970
    124  CA        20.5770   12.2190   -1.5300 C.3    93  CYS93       0.1712
    125  C         20.3110   13.4040   -2.4530 C.2    93  CYS93       0.2296
    126  O         20.9290   13.5810   -3.4970 O.2    93  CYS93      -0.2864
    127  CB        21.7260   12.5190   -0.5730 C.3    93  CYS93       0.0983
    128  SG        23.1810   13.1380   -1.3580 S.3    93  CYS93      -0.0798
    129  N         21.0000   16.4090   -2.3030 N.3    95  LEU95      -0.1231
    130  CA        22.1100   17.3370   -2.5160 C.3    95  LEU95       0.1693
    131  C         22.9360   16.9740   -3.7560 C.2    95  LEU95       0.2592
    132  O         23.2050   17.8240   -4.6010 O.2    95  LEU95      -0.2718
    133  CB        23.0080   17.3590   -1.2780 C.3    95  LEU95       0.0284
    134  CG        24.2280   18.2690   -1.3830 C.3    95  LEU95       0.0019
    135  CD1       23.7780   19.7230   -1.5750 C.3    95  LEU95       0.0001
    136  CD2       25.1060   18.1150   -0.1460 C.3    95  LEU95       0.0001
    137  N         23.3310   15.7080   -3.8620 N.am   96  ASN96      -0.1974
    138  CA        24.1030   15.2460   -5.0090 C.3    96  ASN96       0.1688
    139  C         23.2770   15.2770   -6.2900 C.2    96  ASN96       0.2292
    140  O         23.7870   15.5370   -7.3830 O.2    96  ASN96      -0.2864
    141  CB        24.6150   13.8250   -4.7570 C.3    96  ASN96       0.1181
    142  CG        25.7000   13.7760   -3.6890 C.2    96  ASN96       0.2629
    143  OD1       26.2540   14.8070   -3.3030 O.2    96  ASN96      -0.2716
    144  ND2       26.0020   12.5810   -3.2070 N.am   96  ASN96      -0.0877
    145  N         21.1570   17.5940    2.3030 N.3   137  ARG137     -0.1245
    146  CA        22.0460   16.4570    2.4440 C.3   137  ARG137      0.1563
    147  C         21.3380   15.2810    3.0860 C.2   137  ARG137      0.2260
    148  O         21.7930   14.1540    2.9750 O.2   137  ARG137     -0.2867
    149  CB        23.2820   16.8490    3.2640 C.3   137  ARG137      0.0307
    150  CG        22.9740   17.1260    4.6970 C.3   137  ARG137      0.0489
    151  CD        24.1370   17.7590    5.4450 C.3   137  ARG137      0.2205
    152  NE        23.6810   18.2210    6.7500 N.pl3 137  ARG137     -0.0865
    153  CZ        23.4760   19.4930    7.0430 C.cat 137  ARG137      0.5346
    154  NH1       23.7160   20.4210    6.1300 N.pl3 137  ARG137      0.1354
    155  NH2       23.0460   19.8370    8.2410 N.pl3 137  ARG137      0.1354
    156  N         16.1290   12.6440    0.4160 N.3   140  LEU140     -0.1245
    157  CA        16.4580   11.5980   -0.5480 C.3   140  LEU140      0.1561
    158  C         15.4930   11.6530   -1.7020 C.2   140  LEU140      0.2260
    159  O         14.4190   12.2490   -1.5780 O.2   140  LEU140     -0.2867
    160  CB        16.3570   10.2090    0.1030 C.3   140  LEU140      0.0270
    161  CG        17.2900   10.0110    1.2930 C.3   140  LEU140      0.0019
    162  CD1       17.0000    8.7040    2.0510 C.3   140  LEU140      0.0001
    163  CD2       18.7000   10.0240    0.7550 C.3   140  LEU140      0.0001
    164  N         14.4320   12.4190    5.3890 N.3   150  SER150     -0.1202
    165  CA        15.0170   11.2980    6.1020 C.3   150  SER150      0.2020
    166  C         15.8790   11.7750    7.2710 C.2   150  SER150      0.2619
    167  O         16.1360   12.9730    7.4220 O.2   150  SER150     -0.2717
    168  CB        15.7580   10.3760    5.1090 C.3   150  SER150      0.2103
    169  OG        17.0630   10.0120    5.5070 O.3   150  SER150     -0.2182
    170  N         16.2630   10.8280    8.1230 N.am  151  ASP151     -0.1959
    171  CA        17.0520   11.1080    9.3210 C.3   151  ASP151      0.1840
    172  C         16.3520   12.0430   10.3030 C.2   151  ASP151      0.2622
    173  O         17.0080   12.7020   11.1000 O.2   151  ASP151     -0.2715
    174  CB        18.4130   11.6960    8.9450 C.3   151  ASP151      0.1450
    175  CG        19.3920   10.6400    8.4880 C.2   151  ASP151      0.3671
    176  OD1       19.1180    9.4310    8.6600 O.co2 151  ASP151     -0.2456
    177  OD2       20.4410   11.0210    7.9550 O.co2 151  ASP151     -0.2456
    178  N         15.0300   12.0870   10.2620 N.am  152  PHE152     -0.1974
    179  CA        14.2950   12.9950   11.1320 C.3   152  PHE152      0.1639
    180  C         14.5900   12.6650   12.5990 C.2   152  PHE152      0.2290
    181  O         14.4590   11.5260   13.0220 O.2   152  PHE152     -0.2864
    182  CB        12.7800   12.9510   10.8350 C.3   152  PHE152      0.0560
    183  CG        12.2650   11.5970   10.3840 C.ar  152  PHE152     -0.0200
    184  CD1       12.2900   11.2390    9.0460 C.ar  152  PHE152     -0.0042
    185  CD2       11.7270   10.7080   11.2920 C.ar  152  PHE152     -0.0042
    186  CE1       11.8080   10.0050    8.6300 C.ar  152  PHE152     -0.0003
    187  CE2       11.2500    9.4710   10.8860 C.ar  152  PHE152     -0.0003
    188  CZ        11.2850    9.1190    9.5620 C.ar  152  PHE152     -0.0000
    189  N         17.2510   12.3740   14.2210 N.3   154  LEU154     -0.1245
    190  CA        18.3620   11.4550   14.4670 C.3   154  LEU154      0.1561
    191  C         19.5180   12.0840   15.2200 C.2   154  LEU154      0.2260
    192  O         20.2330   11.3960   15.9370 O.2   154  LEU154     -0.2867
    193  CB        18.8670   10.9010   13.1270 C.3   154  LEU154      0.0270
    194  CG        19.8170    9.7060   13.2120 C.3   154  LEU154      0.0019
    195  CD1       19.1530    8.5020   13.8980 C.3   154  LEU154      0.0001
    196  CD2       20.2990    9.3440   11.8300 C.3   154  LEU154      0.0001
@<TRIPOS>BOND
     1   140   139    2
     2   139   138    1
     3   110   109    1
     4   138   141    1
     5   138   137    1
     6   141   142    1
     7   132   131    2
     8   108   109   ar
     9   108   106   ar
    10   119   120    1
    11   109   107   ar
    12   137   131   am
    13   131   130    1
    14   142   143    2
    15   142   144   am
    16   126   125    2
    17   106   104   ar
    18   120   121    1
    19   113   114    2
    20   113   112    1
    21   107   105   ar
    22   122   121    2
    23   121   123   am
    24     8     6    1
    25   130   129    1
    26   130   133    1
    27   125   124    1
    28   123   124    1
    29   104   105   ar
    30   104   103    1
    31   112   115    1
    32   112   111    1
    33   102   101    2
    34   158   159    2
    35   158   157    1
    36   135   134    1
    37   124   127    1
    38   134   133    1
    39   134   136    1
    40   128   127    1
    41   101   111   am
    42   101   100    1
    43   115   116    1
    44     4     3    2
    45   118   117    1
    46   103   100    1
    47     6     5    1
    48     6     7    1
    49     2     3    1
    50     2     1    1
    51     2     5    1
    52   117   116    1
    53     3     9   am
    54   157   160    1
    55   157   156    1
    56   100    99    1
    57   160   161    1
    58    98    96   ar
    59    99    92   am
    60     9    10    1
    61   163   161    1
    62    10    11    1
    63   161   162    1
    64    96    95    1
    65    96    97   ar
    66    92    93    2
    67    92    91    1
    68    95    94    1
    69    94    91    1
    70    23    22    2
    71   145   146    1
    72    91    90    1
    73   146   147    1
    74   146   149    1
    75    11    13   am
    76    11    12    2
    77    27    28    1
    78    31    28    1
    79    28    29    1
    80    13    14    1
    81   148   147    2
    82    22    21    1
    83   149   150    1
    84    66    64    1
    85    25    24    1
    86    86    85    2
    87    90    85   am
    88    24    21    1
    89    24    26    1
    90    18    17    1
    91    29    30    2
    92    21    20    1
    93    14    17    1
    94    14    15    1
    95    85    84    1
    96    16    15    2
    97    17    19    1
    98    61    64    1
    99    61    60    1
   100    61    62    1
   101    64    65    1
   102   150   151    1
   103    88    87    1
   104   168   169    1
   105   168   165    1
   106   164   165    1
   107   151   152    1
   108    62    63    2
   109    87    84    1
   110    87    89    1
   111    84    83    1
   112   165   166    1
   113   154   153    1
   114   152   153    2
   115   153   155    1
   116    32    33    1
   117   166   167    2
   118   166   170   am
   119    33    36    1
   120    33    34    1
   121   177   175   ar
   122    36    37    1
   123   170   171    1
   124    67    68    1
   125    38    37    1
   126    38    39    1
   127    78    77    2
   128   175   176   ar
   129   175   174    1
   130   186   184   ar
   131   186   188   ar
   132    40    39    1
   133   174   171    1
   134    34    35    2
   135    68    69    1
   136    68    71    1
   137   184   183   ar
   138    69    70    2
   139   171   172    1
   140    77    76    1
   141   188   187   ar
   142   178   172   am
   143   178   179    1
   144   172   173    2
   145   183   182    1
   146   183   185   ar
   147    71    72    1
   148    81    79    1
   149   182   179    1
   150    76    79    1
   151    76    75    1
   152   187   185   ar
   153    79    80    1
   154   179   180    1
   155    73    72    1
   156    72    74    1
   157   196   194    1
   158    80    82    1
   159   180   181    2
   160    55    54    2
   161   193   194    1
   162   193   190    1
   163   194   195    1
   164    59    58    1
   165    54    53    1
   166   189   190    1
   167    56    53    1
   168    56    57    1
   169   190   191    1
   170    53    52    1
   171    57    58    1
   172    51    49   ar
   173    51    50   ar
   174   191   192    2
   175    49    47   ar
   176    50    48   ar
   177    47    46   ar
   178    48    46   ar
   179    46    45    1
   180    45    42    1
   181    44    43    2
   182    43    42    1
   183    42    41    1
