@<TRIPOS>MOLECULE
tmp/6n9xB00.pdb
 183 173 0 0 0
SMALL
GASTEIGER

@<TRIPOS>ATOM
      1  N        135.2030  155.8930  209.4210 N.3   274  SER274     -0.1202
      2  CA       136.1710  154.8550  209.8660 C.3   274  SER274      0.2020
      3  C        135.4460  153.5630  210.2610 C.2   274  SER274      0.2619
      4  O        135.0560  153.4410  211.4390 O.2   274  SER274     -0.2717
      5  CB       137.0290  155.3680  210.9940 C.3   274  SER274      0.2103
      6  OG       137.8510  156.4400  210.5550 O.3   274  SER274     -0.2182
      7  N        135.2800  152.6400  209.3070 N.am  275  GLY275     -0.1942
      8  CA       134.6490  151.3650  209.5860 C.3   275  GLY275      0.2014
      9  C        133.1650  151.3390  209.2930 C.2   275  GLY275      0.2639
     10  O        132.3940  150.7260  210.0360 O.2   275  GLY275     -0.2714
     11  N        132.7520  151.9890  208.2090 N.am  276  MET276     -0.1963
     12  CA       131.3450  152.0780  207.8480 C.3   276  MET276      0.1736
     13  C        130.9630  151.1670  206.6910 C.2   276  MET276      0.2617
     14  O        129.8030  151.1820  206.2700 O.2   276  MET276     -0.2715
     15  CB       130.9810  153.5250  207.5060 C.3   276  MET276      0.0427
     16  CG       131.0800  154.5000  208.6740 C.3   276  MET276      0.0599
     17  SD       129.9210  154.1830  210.0210 S.3   276  MET276     -0.1393
     18  CE       130.9960  153.4840  211.2710 C.3   276  MET276      0.0692
     19  N        131.8980  150.3830  206.1630 N.am  277  GLY277     -0.1940
     20  CA       131.5470  149.3900  205.1680 C.3   277  GLY277      0.2014
     21  C        131.9450  149.7140  203.7440 C.2   277  GLY277      0.2639
     22  O        131.1750  149.4620  202.8130 O.2   277  GLY277     -0.2714
     23  N        133.1390  150.2790  203.5560 N.am  278  LYS278     -0.1963
     24  CA       133.6470  150.5060  202.2070 C.3   278  LYS278      0.1728
     25  C        134.0120  149.1910  201.5320 C.2   278  LYS278      0.2617
     26  O        133.6510  148.9550  200.3700 O.2   278  LYS278     -0.2715
     27  CB       134.8620  151.4270  202.2540 C.3   278  LYS278      0.0311
     28  CG       134.5490  152.8120  202.7410 C.3   278  LYS278      0.0038
     29  CD       135.7810  153.6890  202.7600 C.3   278  LYS278      0.0206
     30  CE       136.7310  153.2800  203.8660 C.3   278  LYS278      0.1093
     31  NZ       136.1450  153.5430  205.2050 N.3   278  LYS278     -0.1314
     32  N        134.7250  148.3230  202.2590 N.am  279  SER279     -0.1936
     33  CA       135.2390  147.0840  201.6880 C.3   279  SER279      0.2055
     34  C        134.1210  146.1250  201.3110 C.2   279  SER279      0.2643
     35  O        134.2560  145.3900  200.3310 O.2   279  SER279     -0.2714
     36  CB       136.2020  146.4160  202.6680 C.3   279  SER279      0.2130
     37  OG       137.3510  147.2170  202.8840 O.3   279  SER279     -0.2179
     38  N        132.9990  146.1570  202.0380 N.am  280  THR280     -0.1950
     39  CA       131.8650  145.2970  201.7080 C.3   280  THR280      0.1897
     40  C        131.2330  145.6930  200.3770 C.2   280  THR280      0.2313
     41  O        130.9820  144.8310  199.5210 O.2   280  THR280     -0.2863
     42  CB       130.8290  145.3520  202.8300 C.3   280  THR280      0.1794
     43  OG1      131.4430  144.9550  204.0600 O.3   280  THR280     -0.2208
     44  CG2      129.6730  144.4140  202.5360 C.3   280  THR280      0.0378
     45  N        133.7190  144.9820  197.5510 N.3   283  ARG283     -0.1245
     46  CA       133.8400  143.5490  197.3070 C.3   283  ARG283      0.1563
     47  C        132.6140  143.0000  196.5870 C.2   283  ARG283      0.2260
     48  O        132.7380  142.1350  195.7100 O.2   283  ARG283     -0.2867
     49  CB       134.0620  142.8290  198.6340 C.3   283  ARG283      0.0307
     50  CG       134.3760  141.3640  198.5090 C.3   283  ARG283      0.0489
     51  CD       134.6250  140.7450  199.8710 C.3   283  ARG283      0.2205
     52  NE       135.7940  141.3150  200.5330 N.pl3 283  ARG283     -0.0865
     53  CZ       135.7450  142.0070  201.6660 C.cat 283  ARG283      0.5346
     54  NH1      134.5830  142.2090  202.2690 N.pl3 283  ARG283      0.1354
     55  NH2      136.8580  142.4900  202.2010 N.pl3 283  ARG283      0.1354
     56  N        144.9490  146.1340  203.0760 N.3   303  GLN303     -0.1231
     57  CA       144.6320  145.9700  204.4910 C.3   303  GLN303      0.1698
     58  C        144.8290  144.5260  204.9300 C.2   303  GLN303      0.2592
     59  O        145.5770  144.2480  205.8740 O.2   303  GLN303     -0.2718
     60  CB       143.1960  146.4170  204.7640 C.3   303  GLN303      0.0381
     61  CG       142.9660  147.9060  204.6410 C.3   303  GLN303      0.0905
     62  CD       141.5160  148.2960  204.8670 C.2   303  GLN303      0.2608
     63  OE1      140.6450  147.4400  205.0220 O.2   303  GLN303     -0.2717
     64  NE2      141.2530  149.5960  204.8940 N.am  303  GLN303     -0.0878
     65  N        144.1660  143.5970  204.2550 N.am  304  GLU304     -0.1979
     66  CA       144.2440  142.1790  204.5600 C.3   304  GLU304      0.1602
     67  C        144.9910  141.4560  203.4480 C.2   304  GLU304      0.2287
     68  O        145.2250  142.0000  202.3660 O.2   304  GLU304     -0.2864
     69  CB       142.8410  141.5950  204.7500 C.3   304  GLU304      0.0415
     70  CG       142.1130  142.1600  205.9600 C.3   304  GLU304      0.1163
     71  CD       140.7020  141.6260  206.1050 C.2   304  GLU304      0.3649
     72  OE1      140.2380  140.9100  205.1930 O.co2 304  GLU304     -0.2457
     73  OE2      140.0540  141.9250  207.1300 O.co2 304  GLU304     -0.2457
     74  N        127.9440  133.5190  205.3660 N.3   321  ARG321     -0.1245
     75  CA       129.0550  134.2300  205.9890 C.3   321  ARG321      0.1563
     76  C        130.0680  133.1850  206.4360 C.2   321  ARG321      0.2260
     77  O        129.8350  132.4630  207.4100 O.2   321  ARG321     -0.2867
     78  CB       128.5730  135.0930  207.1540 C.3   321  ARG321      0.0307
     79  CG       127.6410  136.2190  206.7200 C.3   321  ARG321      0.0489
     80  CD       127.1690  137.0580  207.8950 C.3   321  ARG321      0.2205
     81  NE       128.2600  137.8200  208.4950 N.pl3 321  ARG321     -0.0865
     82  CZ       128.6280  139.0350  208.0990 C.cat 321  ARG321      0.5346
     83  NH1      127.9910  139.6290  207.1010 N.pl3 321  ARG321      0.1354
     84  NH2      129.6320  139.6560  208.7020 N.pl3 321  ARG321      0.1354
     85  N        132.7340  134.0480  209.7290 N.3   324  GLN324     -0.1245
     86  CA       132.0330  134.3590  210.9670 C.3   324  GLN324      0.1566
     87  C        131.3010  133.1570  211.5550 C.2   324  GLN324      0.2260
     88  O        130.3590  133.3390  212.3340 O.2   324  GLN324     -0.2867
     89  CB       131.0490  135.5110  210.7450 C.3   324  GLN324      0.0367
     90  CG       131.6990  136.8680  210.5140 C.3   324  GLN324      0.0905
     91  CD       132.1220  137.0850  209.0750 C.2   324  GLN324      0.2608
     92  OE1      131.6810  136.3730  208.1740 O.2   324  GLN324     -0.2717
     93  NE2      132.9840  138.0700  208.8530 N.am  324  GLN324     -0.0878
     94  N        142.7110  151.5280  200.5720 N.3   380  HIS380     -0.1241
     95  CA       143.3650  152.1140  201.7440 C.3   380  HIS380      0.1621
     96  C        144.6950  152.7770  201.3700 C.2   380  HIS380      0.2264
     97  O        145.7850  152.3200  201.7190 O.2   380  HIS380     -0.2867
     98  CB       143.5510  151.0570  202.8340 C.3   380  HIS380      0.0745
     99  CG       143.9320  151.6240  204.1630 C.ar  380  HIS380      0.0817
    100  ND1      143.0170  152.2050  205.0110 N.ar  380  HIS380     -0.2268
    101  CD2      145.1310  151.7180  204.7820 C.ar  380  HIS380      0.1154
    102  CE1      143.6330  152.6180  206.1040 C.ar  380  HIS380      0.1986
    103  NE2      144.9180  152.3390  205.9880 N.ar  380  HIS380     -0.2212
    104  N        139.8820  157.4760  203.0790 N.3   416  HIS416     -0.1241
    105  CA       139.1790  157.7270  204.3640 C.3   416  HIS416      0.1621
    106  C        138.8750  159.2200  204.5190 C.2   416  HIS416      0.2264
    107  O        138.9550  159.9580  203.5170 O.2   416  HIS416     -0.2867
    108  CB       140.0040  157.1840  205.5390 C.3   416  HIS416      0.0745
    109  CG       139.4330  155.9510  206.1550 C.ar  416  HIS416      0.0817
    110  ND1      139.1230  155.8720  207.4990 N.ar  416  HIS416     -0.2268
    111  CD2      139.1140  154.7520  205.6210 C.ar  416  HIS416      0.1154
    112  CE1      138.6380  154.6760  207.7670 C.ar  416  HIS416      0.1986
    113  NE2      138.6220  153.9700  206.6300 N.ar  416  HIS416     -0.2212
    114  N        129.5830  156.7730  201.5110 N.3   453  LEU453     -0.1245
    115  CA       128.6280  155.9300  202.2190 C.3   453  LEU453      0.1561
    116  C        128.3990  156.4730  203.6240 C.2   453  LEU453      0.2260
    117  O        129.3330  156.9510  204.2730 O.2   453  LEU453     -0.2867
    118  CB       129.1110  154.4780  202.2930 C.3   453  LEU453      0.0270
    119  CG       128.8640  153.5450  201.1030 C.3   453  LEU453      0.0019
    120  CD1      129.7680  153.8400  199.9170 C.3   453  LEU453      0.0001
    121  CD2      129.0200  152.0990  201.5390 C.3   453  LEU453      0.0001
    122  N        126.2050  155.6420  207.3860 N.3   455  ARG455     -0.1245
    123  CA       125.3040  154.8460  208.2100 C.3   455  ARG455      0.1563
    124  C        125.4800  155.2410  209.6680 C.2   455  ARG455      0.2260
    125  O        126.4700  155.8680  210.0490 O.2   455  ARG455     -0.2867
    126  CB       125.5280  153.3390  208.0260 C.3   455  ARG455      0.0307
    127  CG       126.8470  152.8220  208.5570 C.3   455  ARG455      0.0489
    128  CD       126.9640  151.3180  208.3510 C.3   455  ARG455      0.2205
    129  NE       128.2470  150.8010  208.8170 N.pl3 455  ARG455     -0.0865
    130  CZ       128.4780  150.3860  210.0580 C.cat 455  ARG455      0.5346
    131  NH1      127.5090  150.4180  210.9600 N.pl3 455  ARG455      0.1354
    132  NH2      129.6770  149.9330  210.3970 N.pl3 455  ARG455      0.1354
    133  N        120.8040  150.3640  212.3970 N.3   462  PRO462     -0.2102
    134  CA       122.2310  150.3150  212.0610 C.3   462  PRO462      0.1504
    135  C        122.5680  149.5360  210.8000 C.2   462  PRO462      0.2575
    136  O        123.7350  149.1780  210.6180 O.2   462  PRO462     -0.2718
    137  CB       122.8350  149.6250  213.2920 C.3   462  PRO462      0.0282
    138  CG       121.7540  148.7260  213.7590 C.3   462  PRO462      0.0208
    139  CD       120.4640  149.4460  213.4970 C.3   462  PRO462      0.0893
    140  N        121.6010  149.2460  209.9290 N.am  463  ASN463     -0.1975
    141  CA       121.8690  148.4740  208.7220 C.3   463  ASN463      0.1688
    142  C        121.2410  149.1170  207.4910 C.2   463  ASN463      0.2292
    143  O        121.0410  148.4500  206.4750 O.2   463  ASN463     -0.2864
    144  CB       121.3820  147.0340  208.8760 C.3   463  ASN463      0.1181
    145  CG       122.1230  146.2830  209.9610 C.2   463  ASN463      0.2629
    146  OD1      121.5350  145.8730  210.9610 O.2   463  ASN463     -0.2716
    147  ND2      123.4260  146.1080  209.7760 N.am  463  ASN463     -0.0877
    148  N        122.0130  152.0580  204.8880 N.3   465  VAL465     -0.1245
    149  CA       123.0580  152.9620  204.4460 C.3   465  VAL465      0.1561
    150  C        122.4880  153.9500  203.4380 C.2   465  VAL465      0.2260
    151  O        121.4820  153.7000  202.7670 O.2   465  VAL465     -0.2867
    152  CB       124.2640  152.2020  203.8500 C.3   465  VAL465      0.0252
    153  CG1      124.9040  151.3190  204.9050 C.3   465  VAL465      0.0019
    154  CG2      123.8390  151.3820  202.6440 C.3   465  VAL465      0.0019
    155  N        121.4310  146.5420  204.7190 N.3   486  TYR486     -0.1241
    156  CA       122.4660  145.5390  204.9120 C.3   486  TYR486      0.1605
    157  C        121.8980  144.3210  205.6280 C.2   486  TYR486      0.2264
    158  O        121.1180  144.4500  206.5750 O.2   486  TYR486     -0.2867
    159  CB       123.6330  146.1220  205.7090 C.3   486  TYR486      0.0534
    160  CG       124.7540  145.1450  205.9680 C.ar  486  TYR486     -0.0201
    161  CD1      125.6130  144.7590  204.9480 C.ar  486  TYR486     -0.0009
    162  CD2      124.9630  144.6180  207.2360 C.ar  486  TYR486     -0.0009
    163  CE1      126.6430  143.8670  205.1800 C.ar  486  TYR486      0.0417
    164  CE2      125.9920  143.7280  207.4790 C.ar  486  TYR486      0.0417
    165  CZ       126.8280  143.3560  206.4470 C.ar  486  TYR486      0.1957
    166  OH       127.8530  142.4690  206.6810 O.3   486  TYR486     -0.2866
    167  N        122.3560  141.0220  207.9290 N.3   488  LYS488     -0.1245
    168  CA       123.2230  140.4870  208.9680 C.3   488  LYS488      0.1561
    169  C        123.5070  139.0010  208.8050 C.2   488  LYS488      0.2260
    170  O        124.4090  138.4860  209.4740 O.2   488  LYS488     -0.2867
    171  CB       122.6080  140.7380  210.3450 C.3   488  LYS488      0.0271
    172  CG       122.5150  142.2030  210.7210 C.3   488  LYS488      0.0035
    173  CD       123.8990  142.7990  210.8870 C.3   488  LYS488      0.0206
    174  CE       124.5760  142.2480  212.1320 C.3   488  LYS488      0.1093
    175  NZ       125.9070  142.8700  212.3710 N.3   488  LYS488     -0.1314
    176  N        124.1820  143.5310  201.0560 N.3   493  LEU493     -0.1245
    177  CA       123.4450  144.7830  201.0600 C.3   493  LEU493      0.1561
    178  C        122.6380  144.8680  199.7690 C.2   493  LEU493      0.2260
    179  O        123.1610  144.6300  198.6760 O.2   493  LEU493     -0.2867
    180  CB       124.3810  145.9810  201.2550 C.3   493  LEU493      0.0270
    181  CG       125.6380  146.2750  200.4360 C.3   493  LEU493      0.0019
    182  CD1      125.3560  147.0450  199.1620 C.3   493  LEU493      0.0001
    183  CD2      126.6320  147.0360  201.2960 C.3   493  LEU493      0.0001
@<TRIPOS>BOND
     1    48    47    2
     2    47    46    1
     3    46    45    1
     4    46    49    1
     5    50    49    1
     6    50    51    1
     7   179   178    2
     8   182   181    1
     9    41    40    2
    10   178   177    1
    11    51    52    1
    12   120   119    1
    13    35    34    2
    14    26    25    2
    15    40    39    1
    16   181   180    1
    17   181   183    1
    18    52    53    2
    19    94    95    1
    20   176   177    1
    21   177   180    1
    22   119   121    1
    23   119   118    1
    24    34    33    1
    25    34    38   am
    26    96    97    2
    27    96    95    1
    28   114   115    1
    29    25    24    1
    30    25    32   am
    31    53    55    1
    32    53    54    1
    33    33    32    1
    34    33    36    1
    35    39    38    1
    36    39    42    1
    37    95    98    1
    38    24    27    1
    39    24    23    1
    40   115   118    1
    41   115   116    1
    42    27    28    1
    43    68    67    2
    44    44    42    1
    45   154   152    1
    46    36    37    1
    47    28    29    1
    48    29    30    1
    49   151   150    2
    50    22    21    2
    51    42    43    1
    52    98    99    1
    53    56    57    1
    54   104   105    1
    55   150   149    1
    56    67    66    1
    57   107   106    2
    58    23    21   am
    59   116   117    2
    60    21    20    1
    61   152   149    1
    62   152   153    1
    63    30    31    1
    64    99   101   ar
    65    99   100   ar
    66    65    66    1
    67    65    58   am
    68   105   106    1
    69   105   108    1
    70   149   148    1
    71    57    60    1
    72    57    58    1
    73    66    69    1
    74    61    60    1
    75    61    62    1
    76   155   156    1
    77    69    70    1
    78   101   103   ar
    79    62    64   am
    80    62    63    2
    81   156   157    1
    82   156   159    1
    83    58    59    2
    84   161   163   ar
    85   161   160   ar
    86   100   102   ar
    87    20    19    1
    88   163   165   ar
    89    72    71   ar
    90    74    75    1
    91   108   109    1
    92   111   109   ar
    93   111   113   ar
    94   157   158    2
    95   159   160    1
    96    70    71    1
    97   160   162   ar
    98   103   102   ar
    99    75    76    1
   100    75    78    1
   101    71    73   ar
   102   109   110   ar
   103    19    13   am
   104    14    13    2
   105    76    77    2
   106   165   166    1
   107   165   164   ar
   108   143   142    2
   109   113   112   ar
   110    13    12    1
   111    79    78    1
   112    79    80    1
   113    83    82    1
   114   162   164   ar
   115   122   123    1
   116   142   141    1
   117   110   112   ar
   118    15    12    1
   119    15    16    1
   120    12    11    1
   121    80    81    1
   122   167   168    1
   123   126   123    1
   124   126   127    1
   125    82    81    2
   126    82    84    1
   127    92    91    2
   128    11     9   am
   129   123   124    1
   130   128   127    1
   131   128   129    1
   132    16    17    1
   133   141   144    1
   134   141   140    1
   135   169   168    1
   136   169   170    2
   137   129   130    2
   138    93    91   am
   139   144   145    1
   140   168   171    1
   141    91    90    1
   142     9     8    1
   143     9    10    2
   144     7     8    1
   145     7     3   am
   146     1     2    1
   147   124   125    2
   148    85    86    1
   149   147   145   am
   150     2     3    1
   151     2     5    1
   152   140   135   am
   153   145   146    2
   154    17    18    1
   155   130   132    1
   156   130   131    1
   157     3     4    2
   158   171   172    1
   159    90    89    1
   160     6     5    1
   161   136   135    2
   162   172   173    1
   163    89    86    1
   164   135   134    1
   165   173   174    1
   166    86    87    1
   167    87    88    2
   168   134   133    1
   169   134   137    1
   170   174   175    1
   171   133   139    1
   172   137   138    1
   173   139   138    1
