@<TRIPOS>MOLECULE
tmp/6n9xG00.pdb
 147 141 0 0 0
SMALL
GASTEIGER

@<TRIPOS>ATOM
      1  N        172.4080  173.3480  107.1600 N.3   370  ARG370     -0.1245
      2  CA       171.3810  172.8570  108.0650 C.3   370  ARG370      0.1563
      3  C        171.7620  173.1760  109.5030 C.2   370  ARG370      0.2260
      4  O        172.9060  172.9630  109.9160 O.2   370  ARG370     -0.2867
      5  CB       171.1800  171.3520  107.8940 C.3   370  ARG370      0.0307
      6  CG       170.5600  170.9690  106.5680 C.3   370  ARG370      0.0489
      7  CD       170.5770  169.4700  106.3580 C.3   370  ARG370      0.2205
      8  NE       169.7290  168.7390  107.2930 N.pl3 370  ARG370     -0.0865
      9  CZ       168.4520  168.4560  107.0710 C.cat 370  ARG370      0.5346
     10  NH1      167.7570  167.7770  107.9690 N.pl3 370  ARG370      0.1354
     11  NH2      167.8700  168.8530  105.9490 N.pl3 370  ARG370      0.1354
     12  N        154.2800  172.6100  109.0710 N.3   416  ASP416     -0.1225
     13  CA       155.2500  171.7390  108.4230 C.3   416  ASP416      0.1805
     14  C        155.1280  171.8860  106.9120 C.2   416  ASP416      0.2598
     15  O        154.0220  171.9800  106.3780 O.2   416  ASP416     -0.2718
     16  CB       155.0150  170.2690  108.8360 C.3   416  ASP416      0.1424
     17  CG       156.1260  169.3120  108.3750 C.2   416  ASP416      0.3668
     18  OD1      157.1080  169.7300  107.7250 O.co2 416  ASP416     -0.2456
     19  OD2      156.0030  168.1030  108.6700 O.co2 416  ASP416     -0.2456
     20  N        156.2670  171.8820  106.2280 N.am  417  ALA417     -0.1966
     21  CA       156.2910  171.8490  104.7750 C.3   417  ALA417      0.1728
     22  C        156.1960  170.4120  104.2830 C.2   417  ALA417      0.2617
     23  O        156.6050  169.4720  104.9710 O.2   417  ALA417     -0.2715
     24  CB       157.5620  172.5030  104.2370 C.3   417  ALA417      0.0334
     25  N        155.6530  170.2440  103.0790 N.am  418  SER418     -0.1936
     26  CA       155.3280  168.9270  102.5420 C.3   418  SER418      0.2055
     27  C        156.1060  168.6810  101.2600 C.2   418  SER418      0.2644
     28  O        155.9840  169.4500  100.3020 O.2   418  SER418     -0.2714
     29  CB       153.8270  168.8020  102.2850 C.3   418  SER418      0.2130
     30  OG       153.1020  168.8780  103.4970 O.3   418  SER418     -0.2179
     31  N        156.8850  167.5980  101.2390 N.am  419  GLY419     -0.1939
     32  CA       157.6270  167.1860  100.0630 C.3   419  GLY419      0.2014
     33  C        158.7320  168.1430   99.6780 C.2   419  GLY419      0.2639
     34  O        158.8400  168.5350   98.5140 O.2   419  GLY419     -0.2714
     35  N        159.5850  168.4930  100.6390 N.am  420  LEU420     -0.1963
     36  CA       160.4810  169.6310  100.4740 C.3   420  LEU420      0.1728
     37  C        161.6430  169.3140   99.5350 C.2   420  LEU420      0.2616
     38  O        161.7800  169.9330   98.4740 O.2   420  LEU420     -0.2715
     39  CB       160.9630  170.0900  101.8540 C.3   420  LEU420      0.0311
     40  CG       161.7340  171.3960  102.0240 C.3   420  LEU420      0.0022
     41  CD1      161.3090  172.0650  103.3080 C.3   420  LEU420      0.0001
     42  CD2      163.2100  171.1030  102.0970 C.3   420  LEU420      0.0001
     43  N        162.4860  168.3410   99.8920 N.am  421  GLU421     -0.1977
     44  CA       163.6040  168.0050   99.0150 C.3   421  GLU421      0.1602
     45  C        163.1350  167.2580   97.7740 C.2   421  GLU421      0.2287
     46  O        163.7360  167.3940   96.7000 O.2   421  GLU421     -0.2864
     47  CB       164.6400  167.1790   99.7680 C.3   421  GLU421      0.0415
     48  CG       165.2860  167.9230  100.9110 C.3   421  GLU421      0.1163
     49  CD       166.2990  167.0830  101.6510 C.2   421  GLU421      0.3649
     50  OE1      166.4790  165.9060  101.2880 O.co2 421  GLU421     -0.2457
     51  OE2      166.8890  167.5890  102.6230 O.co2 421  GLU421     -0.2457
     52  N        148.6000  163.5470   96.7290 N.3   445  ASP445     -0.1239
     53  CA       149.7350  163.2810   97.5980 C.3   445  ASP445      0.1674
     54  C        150.7490  162.3960   96.8830 C.2   445  ASP445      0.2266
     55  O        150.3930  161.5350   96.0770 O.2   445  ASP445     -0.2867
     56  CB       149.2680  162.6120   98.8900 C.3   445  ASP445      0.1410
     57  CG       150.3680  162.5050   99.9210 C.2   445  ASP445      0.3668
     58  OD1      150.6940  163.5310  100.5540 O.co2 445  ASP445     -0.2456
     59  OD2      150.9150  161.3960  100.0930 O.co2 445  ASP445     -0.2456
     60  N        153.5900  160.6340   98.5560 N.3   447  HIS447     -0.1241
     61  CA       154.0750  159.4620   99.2770 C.3   447  HIS447      0.1621
     62  C        153.0210  158.3720   99.3890 C.2   447  HIS447      0.2264
     63  O        153.3680  157.1870   99.3830 O.2   447  HIS447     -0.2867
     64  CB       154.5700  159.8570  100.6680 C.3   447  HIS447      0.0745
     65  CG       155.8080  160.6960  100.6480 C.ar  447  HIS447      0.0817
     66  ND1      157.0450  160.1830  100.3320 N.ar  447  HIS447     -0.2268
     67  CD2      156.0000  162.0090  100.9080 C.ar  447  HIS447      0.1154
     68  CE1      157.9470  161.1450  100.3940 C.ar  447  HIS447      0.1986
     69  NE2      157.3390  162.2630  100.7420 N.ar  447  HIS447     -0.2212
     70  N        153.4360  154.4600  105.1160 N.3   459  ARG459     -0.1245
     71  CA       153.8610  155.6890  104.4560 C.3   459  ARG459      0.1563
     72  C        155.2450  156.1210  104.9180 C.2   459  ARG459      0.2260
     73  O        156.0190  156.6630  104.1230 O.2   459  ARG459     -0.2867
     74  CB       152.8320  156.7890  104.7210 C.3   459  ARG459      0.0307
     75  CG       153.0960  158.1130  104.0310 C.3   459  ARG459      0.0489
     76  CD       151.9780  159.1000  104.3190 C.3   459  ARG459      0.2205
     77  NE       152.1940  160.3820  103.6580 N.pl3 459  ARG459     -0.0865
     78  CZ       152.8360  161.4040  104.2110 C.cat 459  ARG459      0.5346
     79  NH1      153.3220  161.2970  105.4380 N.pl3 459  ARG459      0.1354
     80  NH2      152.9890  162.5350  103.5380 N.pl3 459  ARG459      0.1354
     81  N        158.4230  156.6470  102.5340 N.3   463  LYS463     -0.1231
     82  CA       159.1760  157.8920  102.6060 C.3   463  LYS463      0.1693
     83  C        160.6470  157.6450  102.9050 C.2   463  LYS463      0.2592
     84  O        161.5050  158.3660  102.3920 O.2   463  LYS463     -0.2718
     85  CB       158.5490  158.8020  103.6620 C.3   463  LYS463      0.0285
     86  CG       159.1760  160.1660  103.8040 C.3   463  LYS463      0.0035
     87  CD       158.3280  161.0430  104.7050 C.3   463  LYS463      0.0206
     88  CE       158.4170  160.6050  106.1530 C.3   463  LYS463      0.1093
     89  NZ       157.6710  161.5250  107.0540 N.3   463  LYS463     -0.1314
     90  N        160.9640  156.6330  103.7120 N.am  464  THR464     -0.1953
     91  CA       162.3640  156.2780  103.9170 C.3   464  THR464      0.1897
     92  C        162.9650  155.6820  102.6490 C.2   464  THR464      0.2313
     93  O        164.0900  156.0280  102.2680 O.2   464  THR464     -0.2863
     94  CB       162.4910  155.3060  105.0890 C.3   464  THR464      0.1794
     95  OG1      161.9550  155.9120  106.2700 O.3   464  THR464     -0.2208
     96  CG2      163.9430  154.9510  105.3430 C.3   464  THR464      0.0378
     97  N        163.8650  158.3300   99.5650 N.3   467  TYR467     -0.1241
     98  CA       165.1040  159.0770   99.7320 C.3   467  TYR467      0.1605
     99  C        166.3100  158.1550   99.8290 C.2   467  TYR467      0.2264
    100  O        167.4150  158.5560   99.4450 O.2   467  TYR467     -0.2867
    101  CB       165.0320  159.9830  100.9600 C.3   467  TYR467      0.0534
    102  CG       164.0160  161.0960  100.8350 C.ar  467  TYR467     -0.0201
    103  CD1      164.2710  162.2170  100.0630 C.ar  467  TYR467     -0.0009
    104  CD2      162.8120  161.0330  101.5090 C.ar  467  TYR467     -0.0009
    105  CE1      163.3400  163.2310   99.9560 C.ar  467  TYR467      0.0417
    106  CE2      161.8790  162.0350  101.4100 C.ar  467  TYR467      0.0417
    107  CZ       162.1450  163.1300  100.6350 C.ar  467  TYR467      0.1957
    108  OH       161.2080  164.1290  100.5500 O.3   467  TYR467     -0.2866
    109  N        169.2910  159.1650   97.2500 N.3   471  TYR471     -0.1241
    110  CA       170.6190  159.6530   97.6310 C.3   471  TYR471      0.1605
    111  C        171.6910  158.5690   97.5400 C.2   471  TYR471      0.2264
    112  O        172.4870  158.3940   98.4610 O.2   471  TYR471     -0.2867
    113  CB       170.5770  160.2530   99.0310 C.3   471  TYR471      0.0534
    114  CG       169.7480  161.5100   99.1240 C.ar  471  TYR471     -0.0201
    115  CD1      170.2280  162.7140   98.6420 C.ar  471  TYR471     -0.0009
    116  CD2      168.4910  161.4960   99.7080 C.ar  471  TYR471     -0.0009
    117  CE1      169.4740  163.8620   98.7210 C.ar  471  TYR471      0.0417
    118  CE2      167.7340  162.6370   99.7920 C.ar  471  TYR471      0.0417
    119  CZ       168.2310  163.8150   99.2980 C.ar  471  TYR471      0.1957
    120  OH       167.4750  164.9580   99.3840 O.3   471  TYR471     -0.2866
    121  N        169.8230  169.0250   99.6640 N.3   556  GLN556     -0.1245
    122  CA       169.4710  169.5080  100.9970 C.3   556  GLN556      0.1566
    123  C        170.0070  170.9040  101.2840 C.2   556  GLN556      0.2260
    124  O        169.3950  171.6410  102.0650 O.2   556  GLN556     -0.2867
    125  CB       169.9420  168.5420  102.0910 C.3   556  GLN556      0.0367
    126  CG       171.4210  168.4690  102.3560 C.3   556  GLN556      0.0905
    127  CD       171.7280  167.5400  103.5080 C.2   556  GLN556      0.2608
    128  OE1      170.8220  166.9570  104.1000 O.2   556  GLN556     -0.2717
    129  NE2      173.0010  167.4170  103.8520 N.am  556  GLN556     -0.0878
    130  N        164.2710  170.8530  111.6950 N.3   594  HIS594     -0.1226
    131  CA       164.8010  171.0320  110.3410 C.3   594  HIS594      0.1752
    132  C        163.7380  171.3710  109.2960 C.2   594  HIS594      0.2596
    133  O        164.0550  171.9930  108.2770 O.2   594  HIS594     -0.2718
    134  CB       165.5310  169.7590  109.9180 C.3   594  HIS594      0.0759
    135  CG       166.6270  169.3470  110.8500 C.ar  594  HIS594      0.0818
    136  ND1      167.8430  169.9900  110.9040 N.ar  594  HIS594     -0.2268
    137  CD2      166.6940  168.3410  111.7540 C.ar  594  HIS594      0.1154
    138  CE1      168.6100  169.4040  111.8050 C.ar  594  HIS594      0.1986
    139  NE2      167.9370  168.4000  112.3350 N.ar  594  HIS594     -0.2212
    140  N        162.4810  170.9890  109.5230 N.am  595  ASP595     -0.1974
    141  CA       161.4230  171.2210  108.5470 C.3   595  ASP595      0.1709
    142  C        160.3090  172.1070  109.0800 C.2   595  ASP595      0.2293
    143  O        159.9030  173.0540  108.4000 O.2   595  ASP595     -0.2864
    144  CB       160.8370  169.8750  108.0830 C.3   595  ASP595      0.1436
    145  CG       159.9930  169.9950  106.8190 C.2   595  ASP595      0.3671
    146  OD1      159.9180  171.0930  106.2300 O.co2 595  ASP595     -0.2456
    147  OD2      159.3820  168.9790  106.4210 O.co2 595  ASP595     -0.2456
@<TRIPOS>BOND
     1    55    54    2
     2    46    45    2
     3    52    53    1
     4    54    53    1
     5   109   110    1
     6   111   110    1
     7   111   112    2
     8    53    56    1
     9   110   113    1
    10    45    44    1
    11    38    37    2
    12    34    33    2
    13    60    61    1
    14   115   117   ar
    15   115   114   ar
    16   117   119   ar
    17    56    57    1
    18    44    47    1
    19    44    43    1
    20   113   114    1
    21   114   116   ar
    22    61    62    1
    23    61    64    1
    24   119   120    1
    25   119   118   ar
    26    63    62    2
    27   100    99    2
    28    37    43   am
    29    37    36    1
    30    97    98    1
    31   121   122    1
    32    33    32    1
    33    33    35   am
    34   116   118   ar
    35    98    99    1
    36    98   101    1
    37    47    48    1
    38    57    59   ar
    39    57    58   ar
    40   105   103   ar
    41   105   107   ar
    42    32    31    1
    43   103   102   ar
    44    28    27    2
    45    66    68   ar
    46    66    65   ar
    47    68    69   ar
    48    36    35    1
    49    36    39    1
    50   108   107    1
    51   107   106   ar
    52    65    64    1
    53    65    67   ar
    54    69    67   ar
    55   102   101    1
    56   102   104   ar
    57    48    49    1
    58   122   123    1
    59   122   125    1
    60    31    27   am
    61    27    26    1
    62   123   124    2
    63    50    49   ar
    64   106   104   ar
    65    49    51   ar
    66    39    40    1
    67    40    42    1
    68    40    41    1
    69   125   126    1
    70    93    92    2
    71    29    26    1
    72    29    30    1
    73   126   127    1
    74    84    83    2
    75    81    82    1
    76    26    25    1
    77    82    83    1
    78    82    85    1
    79    92    91    1
    80    83    90   am
    81    25    22   am
    82   127   129   am
    83   127   128    2
    84    80    78    1
    85    77    78    2
    86    77    76    1
    87    85    86    1
    88    90    91    1
    89    86    87    1
    90    91    94    1
    91    75    76    1
    92    75    74    1
    93    73    72    2
    94    78    79    1
    95    24    21    1
    96    22    21    1
    97    22    23    2
    98    71    74    1
    99    71    72    1
   100    71    70    1
   101    87    88    1
   102    21    20    1
   103    94    96    1
   104    94    95    1
   105    11     9    1
   106    88    89    1
   107    20    14   am
   108   146   145   ar
   109     7     6    1
   110     7     8    1
   111    15    14    2
   112   147   145   ar
   113     6     5    1
   114   145   144    1
   115    14    13    1
   116     9     8    2
   117     9    10    1
   118     1     2    1
   119    18    17   ar
   120     5     2    1
   121     2     3    1
   122   144   141    1
   123   133   132    2
   124    17    19   ar
   125    17    16    1
   126   143   142    2
   127    13    16    1
   128    13    12    1
   129   141   142    1
   130   141   140    1
   131   132   140   am
   132   132   131    1
   133     3     4    2
   134   134   131    1
   135   134   135    1
   136   131   130    1
   137   135   136   ar
   138   135   137   ar
   139   136   138   ar
   140   137   139   ar
   141   138   139   ar
