@<TRIPOS>MOLECULE
tmp/6nabB01.pdb
 112 109 0 0 0
SMALL
GASTEIGER

@<TRIPOS>ATOM
      1  N         43.3610    4.7220   12.4820 N.3   108  THR108     -0.1218
      2  CA        43.9200    3.4020   12.1890 C.3   108  THR108      0.1862
      3  C         45.1650    3.6850   11.3550 C.2   108  THR108      0.2287
      4  O         45.2440    4.7640   10.7640 O.2   108  THR108     -0.2866
      5  CB        42.9280    2.4820   11.4460 C.3   108  THR108      0.1770
      6  OG1       43.5610    1.2180   11.1780 O.3   108  THR108     -0.2211
      7  CG2       42.4440    3.1120   10.1230 C.3   108  THR108      0.0375
      8  N         46.9190    2.0130    8.6570 N.3   110  GLU110     -0.1245
      9  CA        47.2710    1.5500    7.3090 C.3   110  GLU110      0.1567
     10  C         48.0220    2.6270    6.5120 C.2   110  GLU110      0.2260
     11  O         49.0900    2.3670    5.9470 O.2   110  GLU110     -0.2867
     12  CB        46.0180    1.1010    6.5390 C.3   110  GLU110      0.0388
     13  CG        45.4880   -0.2990    6.8930 C.3   110  GLU110      0.1160
     14  CD        44.6420   -0.2910    8.1580 C.2   110  GLU110      0.3649
     15  OE1       44.3940    0.8110    8.6930 O.co2 110  GLU110     -0.2457
     16  OE2       44.2190   -1.3770    8.6170 O.co2 110  GLU110     -0.2457
     17  N         38.6540    8.0920   16.8740 N.3   139  ARG139     -0.1245
     18  CA        37.5760    8.1080   15.8890 C.3   139  ARG139      0.1563
     19  C         36.4780    8.9850   16.4560 C.2   139  ARG139      0.2260
     20  O         35.9040    8.6670   17.5040 O.2   139  ARG139     -0.2867
     21  CB        37.0590    6.6950   15.5940 C.3   139  ARG139      0.0307
     22  CG        38.1040    5.8180   14.8810 C.3   139  ARG139      0.0489
     23  CD        37.5910    4.4080   14.5230 C.3   139  ARG139      0.2205
     24  NE        38.7100    3.5370   14.1190 N.pl3 139  ARG139     -0.0865
     25  CZ        38.5900    2.2900   13.6640 C.cat 139  ARG139      0.5346
     26  NH1       37.3840    1.7220   13.5310 N.pl3 139  ARG139      0.1354
     27  NH2       39.6850    1.5990   13.3450 N.pl3 139  ARG139      0.1354
     28  N         44.2340   -0.0780   21.6840 N.3   156  TRP156     -0.1241
     29  CA        44.1480   -1.3510   20.9840 C.3   156  TRP156      0.1605
     30  C         45.5570   -1.8630   20.7030 C.2   156  TRP156      0.2264
     31  O         46.5570   -1.2210   21.0420 O.2   156  TRP156     -0.2867
     32  CB        43.2920   -1.1960   19.7090 C.3   156  TRP156      0.0550
     33  CG        43.9290   -0.4610   18.5260 C.ar  156  TRP156      0.0003
     34  CD1       45.1580    0.1760   18.4790 C.ar  156  TRP156      0.0946
     35  CD2       43.3640   -0.3250   17.2150 C.ar  156  TRP156      0.0152
     36  NE1       45.3750    0.6920   17.2120 N.ar  156  TRP156     -0.2442
     37  CE2       44.2960    0.3910   16.4210 C.ar  156  TRP156      0.0810
     38  CE3       42.1570   -0.7480   16.6280 C.ar  156  TRP156      0.0012
     39  CZ2       44.0480    0.7080   15.0810 C.ar  156  TRP156      0.0191
     40  CZ3       41.9160   -0.4330   15.3040 C.ar  156  TRP156      0.0001
     41  CH2       42.8480    0.2990   14.5440 C.ar  156  TRP156      0.0015
     42  N         47.0890   -3.0900   16.8980 N.3   158  GLU158     -0.1245
     43  CA        46.8250   -3.2890   15.4800 C.3   158  GLU158      0.1567
     44  C         48.0250   -4.0130   14.8770 C.2   158  GLU158      0.2260
     45  O         49.1730   -3.5740   15.0440 O.2   158  GLU158     -0.2867
     46  CB        46.5320   -1.9570   14.7730 C.3   158  GLU158      0.0388
     47  CG        47.6360   -0.8690   14.8990 C.3   158  GLU158      0.1160
     48  CD        47.2550    0.4270   14.1720 C.2   158  GLU158      0.3649
     49  OE1       47.4550    1.5160   14.7580 O.co2 158  GLU158     -0.2457
     50  OE2       46.7800    0.3530   13.0050 O.co2 158  GLU158     -0.2457
     51  N         49.8190   -5.6400   11.3920 N.3   160  HIS160     -0.1241
     52  CA        49.8680   -5.3890    9.9460 C.3   160  HIS160      0.1621
     53  C         50.8890   -6.3390    9.3380 C.2   160  HIS160      0.2264
     54  O         52.0860   -6.2270    9.6230 O.2   160  HIS160     -0.2867
     55  CB        50.2370   -3.9340    9.6440 C.3   160  HIS160      0.0745
     56  CG        49.2260   -2.9490   10.1220 C.ar  160  HIS160      0.0817
     57  ND1       48.2820   -2.3920    9.2800 N.ar  160  HIS160     -0.2268
     58  CD2       48.9790   -2.4450   11.3550 C.ar  160  HIS160      0.1154
     59  CE1       47.5000   -1.5850    9.9770 C.ar  160  HIS160      0.1986
     60  NE2       47.9050   -1.5930   11.2360 N.ar  160  HIS160     -0.2212
     61  N         35.5260   -4.1590    6.4640 N.3   203  PHE203     -0.1241
     62  CA        36.4500   -3.0310    6.5290 C.3   203  PHE203      0.1605
     63  C         36.6220   -2.3770    5.1570 C.2   203  PHE203      0.2264
     64  O         36.7350   -3.0560    4.1330 O.2   203  PHE203     -0.2867
     65  CB        37.7970   -3.5440    7.0510 C.3   203  PHE203      0.0534
     66  CG        38.7980   -2.4710    7.4010 C.ar  203  PHE203     -0.0203
     67  CD1       38.5730   -1.5990    8.4490 C.ar  203  PHE203     -0.0042
     68  CD2       40.0070   -2.3990    6.7280 C.ar  203  PHE203     -0.0042
     69  CE1       39.5310   -0.6460    8.8050 C.ar  203  PHE203     -0.0003
     70  CE2       40.9770   -1.4540    7.0860 C.ar  203  PHE203     -0.0003
     71  CZ        40.7340   -0.5800    8.1230 C.ar  203  PHE203     -0.0000
     72  N         38.4770   -7.7970   15.1460 N.3   227  THR227     -0.1218
     73  CA        38.3590   -8.1140   13.7260 C.3   227  THR227      0.1862
     74  C         39.7140   -8.4400   13.1180 C.2   227  THR227      0.2287
     75  O         40.7560   -7.9220   13.5300 O.2   227  THR227     -0.2866
     76  CB        37.6910   -6.9790   12.9080 C.3   227  THR227      0.1770
     77  OG1       38.2100   -5.7100   13.3140 O.3   227  THR227     -0.2211
     78  CG2       36.1870   -6.9890   13.0960 C.3   227  THR227      0.0375
     79  N         41.2400   -8.7540    9.2370 N.3   229  HIS229     -0.1241
     80  CA        40.9400   -8.4460    7.8410 C.3   229  HIS229      0.1621
     81  C         41.9820   -9.0330    6.9050 C.2   229  HIS229      0.2264
     82  O         43.1880   -8.9770    7.1790 O.2   229  HIS229     -0.2867
     83  CB        40.8980   -6.9380    7.5800 C.3   229  HIS229      0.0745
     84  CG        40.1600   -6.1520    8.6110 C.ar  229  HIS229      0.0817
     85  ND1       38.7930   -6.2260    8.7690 N.ar  229  HIS229     -0.2268
     86  CD2       40.6030   -5.2610    9.5340 C.ar  229  HIS229      0.1154
     87  CE1       38.4270   -5.4260    9.7570 C.ar  229  HIS229      0.1986
     88  NE2       39.5040   -4.8180   10.2290 N.ar  229  HIS229     -0.2212
     89  N         45.3260   -6.8950    8.1070 N.3   257  SER257     -0.1202
     90  CA        45.4400   -6.1150    9.3290 C.3   257  SER257      0.2020
     91  C         44.3970   -6.6210   10.3160 C.2   257  SER257      0.2619
     92  O         43.3710   -7.1870    9.9240 O.2   257  SER257     -0.2717
     93  CB        45.3130   -4.5890    9.0720 C.3   257  SER257      0.2103
     94  OG        44.0020   -4.2120    8.6860 O.3   257  SER257     -0.2182
     95  N         44.6980   -6.4870   11.6070 N.am  258  TRP258     -0.1961
     96  CA        43.8230   -7.0700   12.6180 C.3   258  TRP258      0.1771
     97  C         43.9540   -6.2730   13.9090 C.2   258  TRP258      0.2620
     98  O         45.0600   -5.8790   14.2940 O.2   258  TRP258     -0.2715
     99  CB        44.1370   -8.5640   12.8540 C.3   258  TRP258      0.0590
    100  CG        45.5510   -8.9950   12.5090 C.ar  258  TRP258      0.0006
    101  CD1       46.0110   -9.3960   11.2900 C.ar  258  TRP258      0.0946
    102  CD2       46.6900   -9.0430   13.4020 C.ar  258  TRP258      0.0152
    103  NE1       47.3670   -9.7000   11.3650 N.ar  258  TRP258     -0.2442
    104  CE2       47.7940   -9.5080   12.6530 C.ar  258  TRP258      0.0810
    105  CE3       46.8650   -8.7790   14.7690 C.ar  258  TRP258      0.0012
    106  CZ2       49.0720   -9.6730   13.2170 C.ar  258  TRP258      0.0191
    107  CZ3       48.1300   -8.9410   15.3290 C.ar  258  TRP258      0.0001
    108  CH2       49.2170   -9.3910   14.5500 C.ar  258  TRP258      0.0015
    109  N         42.8200   -6.0490   14.5700 N.am  259  GLY259     -0.1954
    110  CA        42.7790   -5.2130   15.7560 C.3   259  GLY259      0.1869
    111  C         41.8320   -5.6530   16.8600 C.2   259  GLY259      0.2309
    112  O         40.7060   -6.0960   16.6090 O.2   259  GLY259     -0.2863
@<TRIPOS>BOND
     1    64    63    2
     2    63    62    1
     3    11    10    2
     4    61    62    1
     5    10     9    1
     6    62    65    1
     7    12    13    1
     8    12     9    1
     9    68    70   ar
    10    68    66   ar
    11    13    14    1
    12    81    82    2
    13    81    80    1
    14    65    66    1
    15    70    71   ar
    16     9     8    1
    17    66    67   ar
    18    83    80    1
    19    83    84    1
    20    80    79    1
    21    89    90    1
    22    71    69   ar
    23    14    16   ar
    24    14    15   ar
    25    67    69   ar
    26    84    85   ar
    27    84    86   ar
    28    94    93    1
    29    85    87   ar
    30    93    90    1
    31    57    59   ar
    32    57    56   ar
    33    90    91    1
    34    53    54    2
    35    53    52    1
    36    86    88   ar
    37    55    52    1
    38    55    56    1
    39    87    88   ar
    40    92    91    2
    41    52    51    1
    42    59    60   ar
    43    56    58   ar
    44     7     5    1
    45    91    95   am
    46     4     3    2
    47     6     5    1
    48    60    58   ar
    49   101   103   ar
    50   101   100   ar
    51     3     2    1
    52   103   104   ar
    53     5     2    1
    54    95    96    1
    55     2     1    1
    56   100    99    1
    57   100   102   ar
    58    96    99    1
    59    96    97    1
    60   104   106   ar
    61   104   102   ar
    62    76    78    1
    63    76    77    1
    64    76    73    1
    65    50    48   ar
    66    74    75    2
    67    74    73    1
    68   106   108   ar
    69    27    25    1
    70   102   105   ar
    71    26    25    1
    72    25    24    2
    73    73    72    1
    74    97    98    2
    75    97   109   am
    76    24    23    1
    77    48    49   ar
    78    48    47    1
    79    23    22    1
    80    41    39   ar
    81    41    40   ar
    82   108   107   ar
    83   109   110    1
    84   105   107   ar
    85    46    47    1
    86    46    43    1
    87    44    45    2
    88    44    43    1
    89    22    21    1
    90    39    37   ar
    91    40    38   ar
    92    43    42    1
    93    21    18    1
    94   110   111    1
    95    18    19    1
    96    18    17    1
    97    37    36   ar
    98    37    35   ar
    99    19    20    2
   100   112   111    2
   101    38    35   ar
   102    36    34   ar
   103    35    33   ar
   104    34    33   ar
   105    33    32    1
   106    32    29    1
   107    30    29    1
   108    30    31    2
   109    29    28    1
