@<TRIPOS>MOLECULE
tmp/6nabB00.pdb
 166 162 0 0 0
SMALL
GASTEIGER

@<TRIPOS>ATOM
      1  N         36.3030    6.4730    6.4910 N.3    84  PHE84      -0.1241
      2  CA        36.7510    7.0070    7.7710 C.3    84  PHE84       0.1605
      3  C         36.6990    8.5230    7.8650 C.2    84  PHE84       0.2264
      4  O         36.6910    9.0460    8.9870 O.2    84  PHE84      -0.2867
      5  CB        38.1860    6.5510    8.0860 C.3    84  PHE84       0.0534
      6  CG        38.2580    5.2100    8.7550 C.ar   84  PHE84      -0.0203
      7  CD1       37.9480    5.0840   10.1050 C.ar   84  PHE84      -0.0042
      8  CD2       38.6470    4.0780    8.0460 C.ar   84  PHE84      -0.0042
      9  CE1       38.0040    3.8570   10.7350 C.ar   84  PHE84      -0.0003
     10  CE2       38.7120    2.8430    8.6720 C.ar   84  PHE84      -0.0003
     11  CZ        38.3910    2.7320   10.0240 C.ar   84  PHE84      -0.0000
     12  N         38.6540    8.0920   16.8740 N.3   139  ARG139     -0.1245
     13  CA        37.5760    8.1080   15.8890 C.3   139  ARG139      0.1563
     14  C         36.4780    8.9850   16.4560 C.2   139  ARG139      0.2260
     15  O         35.9040    8.6670   17.5040 O.2   139  ARG139     -0.2867
     16  CB        37.0590    6.6950   15.5940 C.3   139  ARG139      0.0307
     17  CG        38.1040    5.8180   14.8810 C.3   139  ARG139      0.0489
     18  CD        37.5910    4.4080   14.5230 C.3   139  ARG139      0.2205
     19  NE        38.7100    3.5370   14.1190 N.pl3 139  ARG139     -0.0865
     20  CZ        38.5900    2.2900   13.6640 C.cat 139  ARG139      0.5346
     21  NH1       37.3840    1.7220   13.5310 N.pl3 139  ARG139      0.1354
     22  NH2       39.6850    1.5990   13.3450 N.pl3 139  ARG139      0.1354
     23  N         33.4710    9.5170   16.7860 N.3   141  GLU141     -0.1245
     24  CA        32.2490    8.7580   16.5560 C.3   141  GLU141      0.1567
     25  C         31.0310    9.6700   16.4670 C.2   141  GLU141      0.2260
     26  O         30.8650   10.5960   17.2670 O.2   141  GLU141     -0.2867
     27  CB        32.0660    7.7330   17.6840 C.3   141  GLU141      0.0388
     28  CG        33.2260    6.7330   17.8170 C.3   141  GLU141      0.1160
     29  CD        33.1160    5.5740   16.8180 C.2   141  GLU141      0.3649
     30  OE1       31.9900    5.2940   16.3150 O.co2 141  GLU141     -0.2457
     31  OE2       34.1660    4.9680   16.5160 O.co2 141  GLU141     -0.2457
     32  N         33.9440    2.0970   27.2040 N.3   148  PHE148     -0.1227
     33  CA        34.6420    0.9160   26.6820 C.3   148  PHE148      0.1736
     34  C         34.1670    0.4810   25.2930 C.2   148  PHE148      0.2595
     35  O         34.9930    0.3220   24.3910 O.2   148  PHE148     -0.2718
     36  CB        34.5160   -0.2780   27.6310 C.3   148  PHE148      0.0547
     37  CG        35.0660   -0.0250   28.9980 C.ar  148  PHE148     -0.0202
     38  CD1       36.3990    0.3560   29.1680 C.ar  148  PHE148     -0.0042
     39  CD2       34.2680   -0.2010   30.1180 C.ar  148  PHE148     -0.0042
     40  CE1       36.9190    0.5840   30.4440 C.ar  148  PHE148     -0.0003
     41  CE2       34.7800    0.0200   31.3960 C.ar  148  PHE148     -0.0003
     42  CZ        36.1140    0.4180   31.5530 C.ar  148  PHE148     -0.0000
     43  N         32.8560    0.2470   25.1300 N.am  149  ILE149     -0.1966
     44  CA        32.3280   -0.2890   23.8710 C.3   149  ILE149      0.1727
     45  C         32.5890    0.6780   22.7230 C.2   149  ILE149      0.2616
     46  O         33.0230    0.2770   21.6370 O.2   149  ILE149     -0.2715
     47  CB        30.8190   -0.6020   23.9930 C.3   149  ILE149      0.0290
     48  CG1       30.5290   -1.6520   25.0810 C.3   149  ILE149      0.0022
     49  CG2       30.2470   -1.0150   22.6150 C.3   149  ILE149      0.0023
     50  CD1       31.2330   -3.0150   24.8710 C.3   149  ILE149      0.0001
     51  N         32.3150    1.9710   22.9360 N.am  150  ARG150     -0.1963
     52  CA        32.4090    2.9290   21.8270 C.3   150  ARG150      0.1729
     53  C         32.8860    4.2670   22.3990 C.2   150  ARG150      0.2616
     54  O         32.0750    5.1240   22.7570 O.2   150  ARG150     -0.2715
     55  CB        31.0830    3.0760   21.0890 C.3   150  ARG150      0.0348
     56  CG        31.1580    4.0050   19.8730 C.3   150  ARG150      0.0492
     57  CD        29.8290    4.1400   19.1290 C.3   150  ARG150      0.2205
     58  NE        29.2990    2.8420   18.7020 N.pl3 150  ARG150     -0.0865
     59  CZ        29.7780    2.1280   17.6870 C.cat 150  ARG150      0.5346
     60  NH1       30.8080    2.5690   16.9760 N.pl3 150  ARG150      0.1354
     61  NH2       29.2360    0.9560   17.3940 N.pl3 150  ARG150      0.1354
     62  N         34.2060    4.4310   22.4860 N.am  151  SER151     -0.1950
     63  CA        34.7930    5.6780   22.9560 C.3   151  SER151      0.1924
     64  C         35.4950    6.3840   21.7990 C.2   151  SER151      0.2314
     65  O         35.9070    5.7540   20.8190 O.2   151  SER151     -0.2863
     66  CB        35.7600    5.4320   24.1260 C.3   151  SER151      0.2116
     67  OG        36.7710    4.5000   23.7870 O.3   151  SER151     -0.2180
     68  N         40.2840    5.3000   22.0050 N.3   154  PHE154     -0.1241
     69  CA        40.3770    3.9680   22.5830 C.3   154  PHE154      0.1605
     70  C         41.7860    3.4270   22.3680 C.2   154  PHE154      0.2264
     71  O         42.5960    4.0020   21.6350 O.2   154  PHE154     -0.2867
     72  CB        39.2880    3.0250   22.0260 C.3   154  PHE154      0.0534
     73  CG        39.2960    2.8540   20.5100 C.ar  154  PHE154     -0.0203
     74  CD1       39.9460    1.7810   19.9220 C.ar  154  PHE154     -0.0042
     75  CD2       38.5770    3.7120   19.7000 C.ar  154  PHE154     -0.0042
     76  CE1       39.9040    1.5850   18.5470 C.ar  154  PHE154     -0.0003
     77  CE2       38.5310    3.5290   18.3040 C.ar  154  PHE154     -0.0003
     78  CZ        39.2050    2.4670   17.7360 C.ar  154  PHE154     -0.0000
     79  N         44.2340   -0.0780   21.6840 N.3   156  TRP156     -0.1241
     80  CA        44.1480   -1.3510   20.9840 C.3   156  TRP156      0.1605
     81  C         45.5570   -1.8630   20.7030 C.2   156  TRP156      0.2264
     82  O         46.5570   -1.2210   21.0420 O.2   156  TRP156     -0.2867
     83  CB        43.2920   -1.1960   19.7090 C.3   156  TRP156      0.0550
     84  CG        43.9290   -0.4610   18.5260 C.ar  156  TRP156      0.0003
     85  CD1       45.1580    0.1760   18.4790 C.ar  156  TRP156      0.0946
     86  CD2       43.3640   -0.3250   17.2150 C.ar  156  TRP156      0.0152
     87  NE1       45.3750    0.6920   17.2120 N.ar  156  TRP156     -0.2442
     88  CE2       44.2960    0.3910   16.4210 C.ar  156  TRP156      0.0810
     89  CE3       42.1570   -0.7480   16.6280 C.ar  156  TRP156      0.0012
     90  CZ2       44.0480    0.7080   15.0810 C.ar  156  TRP156      0.0191
     91  CZ3       41.9160   -0.4330   15.3040 C.ar  156  TRP156      0.0001
     92  CH2       42.8480    0.2990   14.5440 C.ar  156  TRP156      0.0015
     93  N         35.5260   -4.1590    6.4640 N.3   203  PHE203     -0.1241
     94  CA        36.4500   -3.0310    6.5290 C.3   203  PHE203      0.1605
     95  C         36.6220   -2.3770    5.1570 C.2   203  PHE203      0.2264
     96  O         36.7350   -3.0560    4.1330 O.2   203  PHE203     -0.2867
     97  CB        37.7970   -3.5440    7.0510 C.3   203  PHE203      0.0534
     98  CG        38.7980   -2.4710    7.4010 C.ar  203  PHE203     -0.0203
     99  CD1       38.5730   -1.5990    8.4490 C.ar  203  PHE203     -0.0042
    100  CD2       40.0070   -2.3990    6.7280 C.ar  203  PHE203     -0.0042
    101  CE1       39.5310   -0.6460    8.8050 C.ar  203  PHE203     -0.0003
    102  CE2       40.9770   -1.4540    7.0860 C.ar  203  PHE203     -0.0003
    103  CZ        40.7340   -0.5800    8.1230 C.ar  203  PHE203     -0.0000
    104  N         30.5010   -6.5510   18.1470 N.3   224  GLN224     -0.1231
    105  CA        31.6570   -6.9820   17.3600 C.3   224  GLN224      0.1698
    106  C         32.9040   -6.8790   18.2370 C.2   224  GLN224      0.2593
    107  O         33.3320   -5.7720   18.5840 O.2   224  GLN224     -0.2718
    108  CB        31.7800   -6.1220   16.1040 C.3   224  GLN224      0.0381
    109  CG        33.0280   -6.3900   15.2520 C.3   224  GLN224      0.0905
    110  CD        34.0870   -5.3050   15.4260 C.2   224  GLN224      0.2608
    111  OE1       34.9930   -5.4370   16.2570 O.2   224  GLN224     -0.2717
    112  NE2       33.9740   -4.2240   14.6500 N.am  224  GLN224     -0.0878
    113  N         33.4730   -8.0280   18.6200 N.am  225  GLY225     -0.1942
    114  CA        34.4840   -8.0670   19.6640 C.3   225  GLY225      0.2014
    115  C         35.9330   -7.8930   19.2320 C.2   225  GLY225      0.2639
    116  O         36.8170   -7.7750   20.0880 O.2   225  GLY225     -0.2714
    117  N         36.2130   -7.8830   17.9330 N.am  226  GLY226     -0.1939
    118  CA        37.5870   -7.8400   17.4440 C.3   226  GLY226      0.2014
    119  C         37.5830   -8.3020   16.0000 C.2   226  GLY226      0.2639
    120  O         36.7260   -9.1170   15.6450 O.2   226  GLY226     -0.2714
    121  N         38.4770   -7.7970   15.1460 N.am  227  THR227     -0.1950
    122  CA        38.3590   -8.1140   13.7260 C.3   227  THR227      0.1897
    123  C         39.7140   -8.4400   13.1180 C.2   227  THR227      0.2313
    124  O         40.7560   -7.9220   13.5300 O.2   227  THR227     -0.2863
    125  CB        37.6910   -6.9790   12.9080 C.3   227  THR227      0.1794
    126  OG1       38.2100   -5.7100   13.3140 O.3   227  THR227     -0.2208
    127  CG2       36.1870   -6.9890   13.0960 C.3   227  THR227      0.0378
    128  N         41.2400   -8.7540    9.2370 N.3   229  HIS229     -0.1241
    129  CA        40.9400   -8.4460    7.8410 C.3   229  HIS229      0.1621
    130  C         41.9820   -9.0330    6.9050 C.2   229  HIS229      0.2264
    131  O         43.1880   -8.9770    7.1790 O.2   229  HIS229     -0.2867
    132  CB        40.8980   -6.9380    7.5800 C.3   229  HIS229      0.0745
    133  CG        40.1600   -6.1520    8.6110 C.ar  229  HIS229      0.0817
    134  ND1       38.7930   -6.2260    8.7690 N.ar  229  HIS229     -0.2268
    135  CD2       40.6030   -5.2610    9.5340 C.ar  229  HIS229      0.1154
    136  CE1       38.4270   -5.4260    9.7570 C.ar  229  HIS229      0.1986
    137  NE2       39.5040   -4.8180   10.2290 N.ar  229  HIS229     -0.2212
    138  N         42.8200   -6.0490   14.5700 N.3   259  GLY259     -0.1210
    139  CA        42.7790   -5.2130   15.7560 C.3   259  GLY259      0.1956
    140  C         41.8320   -5.6530   16.8600 C.2   259  GLY259      0.2612
    141  O         40.7060   -6.0960   16.6090 O.2   259  GLY259     -0.2717
    142  N         42.2870   -5.5110   18.1000 N.am  260  LEU260     -0.1965
    143  CA        41.5190   -5.8140   19.3030 C.3   260  LEU260      0.1728
    144  C         41.6880   -4.6410   20.2680 C.2   260  LEU260      0.2616
    145  O         42.8210   -4.1970   20.4960 O.2   260  LEU260     -0.2715
    146  CB        42.0350   -7.1160   19.9430 C.3   260  LEU260      0.0311
    147  CG        41.3310   -7.6660   21.1890 C.3   260  LEU260      0.0022
    148  CD1       40.0540   -8.3860   20.7550 C.3   260  LEU260      0.0001
    149  CD2       42.2390   -8.5710   22.0270 C.3   260  LEU260      0.0001
    150  N         40.5880   -4.1570   20.8620 N.am  261  SER261     -0.1950
    151  CA        40.6320   -2.9090   21.6310 C.3   261  SER261      0.1924
    152  C         40.1010   -3.0960   23.0510 C.2   261  SER261      0.2314
    153  O         39.6510   -4.1780   23.4460 O.2   261  SER261     -0.2863
    154  CB        39.8210   -1.8000   20.9500 C.3   261  SER261      0.2116
    155  OG        38.4330   -1.9350   21.2380 O.3   261  SER261     -0.2180
    156  N         37.3720   -2.2840   23.9360 N.3   263  ARG263     -0.1245
    157  CA        35.9860   -2.7420   23.8980 C.3   263  ARG263      0.1563
    158  C         35.8170   -4.0530   24.6700 C.2   263  ARG263      0.2260
    159  O         34.7640   -4.2900   25.2830 O.2   263  ARG263     -0.2867
    160  CB        35.5520   -2.9050   22.4370 C.3   263  ARG263      0.0307
    161  CG        34.2380   -3.6390   22.2410 C.3   263  ARG263      0.0489
    162  CD        33.8120   -3.6100   20.7640 C.3   263  ARG263      0.2205
    163  NE        33.4790   -2.2590   20.3170 N.pl3 263  ARG263     -0.0865
    164  CZ        33.1740   -1.9490   19.0610 C.cat 263  ARG263      0.5346
    165  NH1       33.1670   -2.9050   18.1310 N.pl3 263  ARG263      0.1354
    166  NH2       32.8860   -0.6860   18.7350 N.pl3 263  ARG263      0.1354
@<TRIPOS>BOND
     1    96    95    2
     2    95    94    1
     3    93    94    1
     4     1     2    1
     5    94    97    1
     6   100   102   ar
     7   100    98   ar
     8   130   131    2
     9   130   129    1
    10    97    98    1
    11   102   103   ar
    12    98    99   ar
    13   132   129    1
    14   132   133    1
    15     2     3    1
    16     2     5    1
    17   129   128    1
    18     3     4    2
    19     8    10   ar
    20     8     6   ar
    21     5     6    1
    22   103   101   ar
    23    99   101   ar
    24   133   134   ar
    25   133   135   ar
    26    10    11   ar
    27     6     7   ar
    28   134   136   ar
    29   135   137   ar
    30   136   137   ar
    31    11     9   ar
    32     7     9   ar
    33   125   127    1
    34   125   126    1
    35   125   122    1
    36   123   124    2
    37   123   122    1
    38    22    20    1
    39    21    20    1
    40    20    19    2
    41   122   121    1
    42    19    18    1
    43    18    17    1
    44    92    90   ar
    45    92    91   ar
    46   138   139    1
    47   112   110   am
    48    17    16    1
    49    90    88   ar
    50   121   119   am
    51   109   110    1
    52   109   108    1
    53    91    89   ar
    54   110   111    2
    55    16    13    1
    56   120   119    2
    57   139   140    1
    58    13    14    1
    59    13    12    1
    60   119   118    1
    61   108   105    1
    62    30    29   ar
    63    88    87   ar
    64    88    86   ar
    65    14    15    2
    66    25    24    1
    67    25    26    2
    68    31    29   ar
    69    24    23    1
    70    24    27    1
    71   141   140    2
    72    89    86   ar
    73    29    28    1
    74   140   142   am
    75    60    59    1
    76    87    85   ar
    77    86    84   ar
    78   105   104    1
    79   105   106    1
    80    61    59    1
    81   118   117    1
    82    27    28    1
    83    59    58    2
    84    78    77   ar
    85    78    76   ar
    86   117   115   am
    87   142   143    1
    88   165   164    1
    89   106   107    2
    90   106   113   am
    91    77    75   ar
    92    85    84   ar
    93    84    83    1
    94    76    74   ar
    95   113   114    1
    96    58    57    1
    97   166   164    1
    98   164   163    2
    99    57    56    1
   100   115   114    1
   101   115   116    2
   102   143   146    1
   103   143   144    1
   104    75    73   ar
   105    83    80    1
   106    56    55    1
   107    74    73   ar
   108   146   147    1
   109   144   145    2
   110   144   150   am
   111   163   162    1
   112    73    72    1
   113    81    80    1
   114    81    82    2
   115   148   147    1
   116   162   161    1
   117    65    64    2
   118   150   151    1
   119   154   155    1
   120   154   151    1
   121    80    79    1
   122    55    52    1
   123   147   149    1
   124   151   152    1
   125    71    70    2
   126    46    45    2
   127    64    63    1
   128    52    53    1
   129    52    51    1
   130    68    69    1
   131    72    69    1
   132   161   160    1
   133    70    69    1
   134    53    62   am
   135    53    54    2
   136   160   157    1
   137    62    63    1
   138    49    47    1
   139    45    51   am
   140    45    44    1
   141    63    66    1
   142   152   153    2
   143    67    66    1
   144    44    47    1
   145    44    43    1
   146   157   156    1
   147   157   158    1
   148    47    48    1
   149    35    34    2
   150   158   159    2
   151    50    48    1
   152    43    34   am
   153    34    33    1
   154    33    32    1
   155    33    36    1
   156    36    37    1
   157    37    38   ar
   158    37    39   ar
   159    38    40   ar
   160    39    41   ar
   161    40    42   ar
   162    41    42   ar
