@<TRIPOS>MOLECULE
tmp/6naoB00.pdb
 169 162 0 0 0
SMALL
GASTEIGER

@<TRIPOS>ATOM
      1  N        -26.4560  -12.6260   18.9400 N.3    87  ALA87      -0.1231
      2  CA       -26.1600  -11.2130   19.1550 C.3    87  ALA87       0.1694
      3  C        -24.7240  -10.9730   19.6300 C.2    87  ALA87       0.2592
      4  O        -24.2090   -9.8690   19.4350 O.2    87  ALA87      -0.2718
      5  CB       -27.1410  -10.6300   20.1680 C.3    87  ALA87       0.0304
      6  N        -24.0920  -11.9710   20.2780 N.am   88  TYR88      -0.1976
      7  CA       -22.7300  -11.8520   20.8110 C.3    88  TYR88       0.1639
      8  C        -21.7610  -12.6150   19.9260 C.2    88  TYR88       0.2290
      9  O        -22.0990  -13.6950   19.4250 O.2    88  TYR88      -0.2864
     10  CB       -22.6690  -12.3170   22.2720 C.3    88  TYR88       0.0560
     11  CG       -23.5530  -11.4940   23.1800 C.ar   88  TYR88      -0.0198
     12  CD1      -24.9210  -11.7310   23.2560 C.ar   88  TYR88      -0.0009
     13  CD2      -23.0310  -10.4420   23.9180 C.ar   88  TYR88      -0.0009
     14  CE1      -25.7470  -10.9560   24.0650 C.ar   88  TYR88       0.0417
     15  CE2      -23.8380   -9.6760   24.7540 C.ar   88  TYR88       0.0417
     16  CZ       -25.2000   -9.9400   24.8340 C.ar   88  TYR88       0.1957
     17  OH       -26.0300   -9.1790   25.6430 O.3    88  TYR88      -0.2866
     18  N        -20.3600   -1.6720   28.4350 N.3   145  SER145     -0.1217
     19  CA       -20.8970   -1.0060   27.2310 C.3   145  SER145      0.1889
     20  C        -20.8900    0.5280   27.4120 C.2   145  SER145      0.2288
     21  O        -20.3120    1.1890   26.5510 O.2   145  SER145     -0.2866
     22  CB       -22.2880   -1.5230   26.8570 C.3   145  SER145      0.2089
     23  OG       -22.7760   -0.9920   25.6470 O.3   145  SER145     -0.2183
     24  N        -19.6040   -5.8340   24.8400 N.3   202  LYS202     -0.1245
     25  CA       -20.5720   -6.2140   25.8530 C.3   202  LYS202      0.1561
     26  C        -20.3040   -7.6710   26.1680 C.2   202  LYS202      0.2260
     27  O        -20.3060   -8.5020   25.2610 O.2   202  LYS202     -0.2867
     28  CB       -22.0160   -6.0300   25.3450 C.3   202  LYS202      0.0271
     29  CG       -23.1020   -6.3710   26.3410 C.3   202  LYS202      0.0035
     30  CD       -23.0320   -5.5830   27.6130 C.3   202  LYS202      0.0206
     31  CE       -24.0900   -6.0650   28.6130 C.3   202  LYS202      0.1093
     32  NZ       -23.9370   -5.4120   29.9440 N.3   202  LYS202     -0.1314
     33  N        -21.2250   -7.2250   21.0800 N.3   216  ARG216     -0.1231
     34  CA       -22.6340   -7.2790   20.6980 C.3   216  ARG216      0.1694
     35  C        -22.9010   -6.4150   19.4680 C.2   216  ARG216      0.2592
     36  O        -22.3010   -5.3560   19.3160 O.2   216  ARG216     -0.2718
     37  CB       -23.5280   -6.8480   21.8740 C.3   216  ARG216      0.0321
     38  CG       -25.0200   -7.1360   21.6740 C.3   216  ARG216      0.0489
     39  CD       -25.8100   -6.7900   22.9220 C.3   216  ARG216      0.2205
     40  NE       -25.7880   -5.3510   23.1950 N.pl3 216  ARG216     -0.0865
     41  CZ       -25.9840   -4.7790   24.3860 C.cat 216  ARG216      0.5346
     42  NH1      -25.9290   -3.4580   24.5110 N.pl3 216  ARG216      0.1354
     43  NH2      -26.2250   -5.5260   25.4650 N.pl3 216  ARG216      0.1354
     44  N        -23.8120   -6.8690   18.6060 N.am  217  LEU217     -0.1966
     45  CA       -24.1970   -6.1350   17.4030 C.3   217  LEU217      0.1728
     46  C        -24.9500   -4.8530   17.7300 C.2   217  LEU217      0.2617
     47  O        -25.7660   -4.8420   18.6490 O.2   217  LEU217     -0.2715
     48  CB       -25.0980   -6.9890   16.5100 C.3   217  LEU217      0.0311
     49  CG       -24.4410   -8.1700   15.8650 C.3   217  LEU217      0.0022
     50  CD1      -25.4980   -9.1220   15.3490 C.3   217  LEU217      0.0001
     51  CD2      -23.5250   -7.7330   14.7090 C.3   217  LEU217      0.0001
     52  N        -24.7060   -3.7950   16.9430 N.am  218  SER218     -0.1936
     53  CA       -25.3770   -2.5120   17.1210 C.3   218  SER218      0.2055
     54  C        -25.8140   -1.9640   15.7400 C.2   218  SER218      0.2643
     55  O        -25.0610   -2.0710   14.7690 O.2   218  SER218     -0.2714
     56  CB       -24.4750   -1.5400   17.8910 C.3   218  SER218      0.2130
     57  OG       -25.0560   -0.2540   18.0630 O.3   218  SER218     -0.2179
     58  N        -27.0610   -1.4570   15.6590 N.am  219  PHE219     -0.1959
     59  CA       -27.6490   -0.8720   14.4470 C.3   219  PHE219      0.1771
     60  C        -28.3080    0.4860   14.8030 C.2   219  PHE219      0.2620
     61  O        -29.4000    0.8220   14.3200 O.2   219  PHE219     -0.2715
     62  CB       -28.6750   -1.8330   13.8150 C.3   219  PHE219      0.0574
     63  CG       -28.1180   -3.1870   13.4800 C.ar  219  PHE219     -0.0200
     64  CD1      -27.3600   -3.3760   12.3360 C.ar  219  PHE219     -0.0042
     65  CD2      -28.3580   -4.2780   14.3030 C.ar  219  PHE219     -0.0042
     66  CE1      -26.8390   -4.6290   12.0270 C.ar  219  PHE219     -0.0003
     67  CE2      -27.8320   -5.5320   13.9960 C.ar  219  PHE219     -0.0003
     68  CZ       -27.0770   -5.6980   12.8590 C.ar  219  PHE219     -0.0000
     69  N        -27.6180    1.2600   15.6550 N.am  220  SER220     -0.1950
     70  CA       -28.0560    2.5700   16.1280 C.3   220  SER220      0.1924
     71  C        -28.3050    3.5260   14.9560 C.2   220  SER220      0.2314
     72  O        -29.2390    4.3250   15.0070 O.2   220  SER220     -0.2863
     73  CB       -26.9940    3.1570   17.0570 C.3   220  SER220      0.2116
     74  OG       -25.7580    3.3200   16.3700 O.3   220  SER220     -0.2180
     75  N        -31.5990    2.5840   13.1160 N.3   223  GLU223     -0.1245
     76  CA       -32.7180    3.0080   13.9790 C.3   223  GLU223      0.1567
     77  C        -32.9820    4.5060   13.7970 C.2   223  GLU223      0.2260
     78  O        -34.1390    4.9240   13.7750 O.2   223  GLU223     -0.2867
     79  CB       -32.4170    2.7100   15.4570 C.3   223  GLU223      0.0388
     80  CG       -32.4470    1.2280   15.8040 C.3   223  GLU223      0.1160
     81  CD       -31.7090    0.7880   17.0610 C.2   223  GLU223      0.3649
     82  OE1      -31.2750    1.6590   17.8500 O.co2 223  GLU223     -0.2457
     83  OE2      -31.5320   -0.4410   17.2360 O.co2 223  GLU223     -0.2457
     84  N        -34.1010   -3.6370   35.4960 N.3   272  LYS272     -0.1245
     85  CA       -33.7530   -4.3960   34.2860 C.3   272  LYS272      0.1561
     86  C        -34.4090   -3.8380   32.9590 C.2   272  LYS272      0.2260
     87  O        -33.9560   -4.1920   31.8590 O.2   272  LYS272     -0.2867
     88  CB       -34.0500   -5.8940   34.4800 C.3   272  LYS272      0.0271
     89  CG       -33.2600   -6.4570   35.6680 C.3   272  LYS272      0.0035
     90  CD       -33.4990   -7.9510   35.7610 C.3   272  LYS272      0.0206
     91  CE       -32.8810   -8.5450   37.0200 C.3   272  LYS272      0.1093
     92  NZ       -33.4120   -9.9510   37.1380 N.3   272  LYS272     -0.1314
     93  N        -35.3110   -1.0110   30.0160 N.3   274  SER274     -0.1202
     94  CA       -34.6280    0.1080   29.3840 C.3   274  SER274      0.2020
     95  C        -35.4580    0.7100   28.2600 C.2   274  SER274      0.2619
     96  O        -36.4090    0.0810   27.7680 O.2   274  SER274     -0.2717
     97  CB       -33.2700   -0.3380   28.8480 C.3   274  SER274      0.2103
     98  OG       -33.3340   -0.8210   27.5160 O.3   274  SER274     -0.2182
     99  N        -35.0430    1.9090   27.8060 N.am  275  SER275     -0.1937
    100  CA       -35.7160    2.5770   26.7070 C.3   275  SER275      0.2055
    101  C        -35.5920    1.7600   25.4310 C.2   275  SER275      0.2643
    102  O        -36.4070    1.9470   24.5260 O.2   275  SER275     -0.2714
    103  CB       -35.1460    3.9680   26.4930 C.3   275  SER275      0.2130
    104  OG       -33.8010    3.9170   26.0400 O.3   275  SER275     -0.2179
    105  N        -34.5860    0.8520   25.3460 N.am  276  TYR276     -0.1959
    106  CA       -34.4430   -0.0080   24.1830 C.3   276  TYR276      0.1771
    107  C        -35.6040   -0.9880   24.0650 C.2   276  TYR276      0.2619
    108  O        -35.9790   -1.3180   22.9490 O.2   276  TYR276     -0.2715
    109  CB       -33.1130   -0.7530   24.1740 C.3   276  TYR276      0.0574
    110  CG       -32.8080   -1.3170   22.8050 C.ar  276  TYR276     -0.0198
    111  CD1      -32.5020   -0.4800   21.7430 C.ar  276  TYR276     -0.0009
    112  CD2      -32.9440   -2.6760   22.5410 C.ar  276  TYR276     -0.0009
    113  CE1      -32.2740   -0.9780   20.4640 C.ar  276  TYR276      0.0417
    114  CE2      -32.7330   -3.1910   21.2560 C.ar  276  TYR276      0.0417
    115  CZ       -32.4110   -2.3340   20.2110 C.ar  276  TYR276      0.1957
    116  OH       -32.1860   -2.8310   18.9360 O.3   276  TYR276     -0.2866
    117  N        -36.1910   -1.4280   25.1910 N.am  277  HIS277     -0.1973
    118  CA       -37.3350   -2.3510   25.1770 C.3   277  HIS277      0.1656
    119  C        -38.5250   -1.6360   24.5700 C.2   277  HIS277      0.2291
    120  O        -39.2520   -2.2000   23.7560 O.2   277  HIS277     -0.2864
    121  CB       -37.6890   -2.8430   26.5990 C.3   277  HIS277      0.0771
    122  CG       -36.6230   -3.6690   27.2330 C.ar  277  HIS277      0.0820
    123  ND1      -36.0660   -3.3250   28.4460 N.ar  277  HIS277     -0.2267
    124  CD2      -36.0530   -4.8030   26.7920 C.ar  277  HIS277      0.1154
    125  CE1      -35.1640   -4.2520   28.6970 C.ar  277  HIS277      0.1986
    126  NE2      -35.1350   -5.1710   27.7340 N.ar  277  HIS277     -0.2212
    127  N        -35.6930   -8.7880   19.3280 N.3   322  ASN322     -0.1240
    128  CA       -34.8560   -7.7140   18.8040 C.3   322  ASN322      0.1653
    129  C        -35.3120   -7.4650   17.3410 C.2   322  ASN322      0.2266
    130  O        -35.5030   -8.4220   16.5710 O.2   322  ASN322     -0.2867
    131  CB       -33.3770   -8.1220   18.8380 C.3   322  ASN322      0.1155
    132  CG       -32.4300   -7.0470   18.3530 C.2   322  ASN322      0.2627
    133  OD1      -32.2450   -6.8320   17.1480 O.2   322  ASN322     -0.2716
    134  ND2      -31.7920   -6.3530   19.2710 N.am  322  ASN322     -0.0877
    135  N        -32.4600   -8.8360   15.0900 N.3   325  ILE325     -0.1245
    136  CA       -32.0910  -10.2270   15.3700 C.3   325  ILE325      0.1561
    137  C        -33.3650  -10.9220   15.9080 C.2   325  ILE325      0.2260
    138  O        -33.6070  -10.9300   17.1150 O.2   325  ILE325     -0.2867
    139  CB       -30.8790  -10.2540   16.3440 C.3   325  ILE325      0.0252
    140  CG1      -29.6880   -9.4650   15.7570 C.3   325  ILE325      0.0019
    141  CG2      -30.4320  -11.6610   16.6440 C.3   325  ILE325      0.0019
    142  CD1      -28.9460   -8.7040   16.7470 C.3   325  ILE325      0.0001
    143  N        -33.1740  -13.3290   18.9820 N.3   328  PHE328     -0.1241
    144  CA       -32.8140  -12.8010   20.2950 C.3   328  PHE328      0.1605
    145  C        -34.0670  -12.1910   20.9670 C.2   328  PHE328      0.2264
    146  O        -34.6270  -11.2230   20.4640 O.2   328  PHE328     -0.2867
    147  CB       -31.6680  -11.7730   20.1840 C.3   328  PHE328      0.0534
    148  CG       -31.0420  -11.5170   21.5290 C.ar  328  PHE328     -0.0203
    149  CD1      -31.6220  -10.6330   22.4220 C.ar  328  PHE328     -0.0042
    150  CD2      -29.9330  -12.2360   21.9430 C.ar  328  PHE328     -0.0042
    151  CE1      -31.0890  -10.4570   23.7020 C.ar  328  PHE328     -0.0003
    152  CE2      -29.3710  -12.0230   23.2030 C.ar  328  PHE328     -0.0003
    153  CZ       -29.9570  -11.1400   24.0810 C.ar  328  PHE328     -0.0000
    154  N        -35.4700  -10.1680   24.0250 N.3   330  LEU330     -0.1245
    155  CA       -35.1100   -9.2050   25.0790 C.3   330  LEU330      0.1561
    156  C        -35.8900   -9.4520   26.3930 C.2   330  LEU330      0.2260
    157  O        -35.4350   -8.9990   27.4520 O.2   330  LEU330     -0.2867
    158  CB       -35.3510   -7.7440   24.6350 C.3   330  LEU330      0.0270
    159  CG       -34.8750   -7.2920   23.2490 C.3   330  LEU330      0.0019
    160  CD1      -35.2550   -5.8390   22.9910 C.3   330  LEU330      0.0001
    161  CD2      -33.4040   -7.4140   23.1110 C.3   330  LEU330      0.0001
    162  N        -33.2610  -13.2040   31.1890 N.3   335  LEU335     -0.1245
    163  CA       -32.8500  -11.7930   31.2160 C.3   335  LEU335      0.1561
    164  C        -33.6590  -10.9730   32.1910 C.2   335  LEU335      0.2260
    165  O        -33.0980  -10.0990   32.8500 O.2   335  LEU335     -0.2867
    166  CB       -32.9750  -11.1670   29.8240 C.3   335  LEU335      0.0270
    167  CG       -32.2140  -11.8510   28.7020 C.3   335  LEU335      0.0019
    168  CD1      -32.4770  -11.1710   27.3920 C.3   335  LEU335      0.0001
    169  CD2      -30.7360  -11.8700   28.9770 C.3   335  LEU335      0.0001
@<TRIPOS>BOND
     1    66    64   ar
     2    66    68   ar
     3    64    63   ar
     4    68    67   ar
     5    75    76    1
     6    63    62    1
     7    63    65   ar
     8    78    77    2
     9    77    76    1
    10    62    59    1
    11    76    79    1
    12    67    65   ar
    13    61    60    2
    14    59    60    1
    15    59    58    1
    16    51    49    1
    17    55    54    2
    18    60    69   am
    19    71    72    2
    20    71    70    1
    21   135   136    1
    22    50    49    1
    23   136   137    1
    24   136   139    1
    25    79    80    1
    26    69    70    1
    27    58    54   am
    28    54    53    1
    29   140   139    1
    30   140   142    1
    31    80    81    1
    32    49    48    1
    33   137   138    2
    34    70    73    1
    35   139   141    1
    36    74    73    1
    37    48    45    1
    38   130   129    2
    39    52    53    1
    40    52    46   am
    41    81    83   ar
    42    81    82   ar
    43    53    56    1
    44   133   132    2
    45   129   128    1
    46    45    46    1
    47    45    44    1
    48    46    47    2
    49    56    57    1
    50   132   131    1
    51   132   134   am
    52    44    35   am
    53   128   131    1
    54   128   127    1
    55   116   115    1
    56     1     2    1
    57   143   144    1
    58     2     3    1
    59     2     5    1
    60    36    35    2
    61     9     8    2
    62     4     3    2
    63    35    34    1
    64     3     6   am
    65     8     7    1
    66   147   144    1
    67   147   148    1
    68   115   113   ar
    69   115   114   ar
    70     6     7    1
    71   144   145    1
    72   146   145    2
    73   113   111   ar
    74    34    33    1
    75    34    37    1
    76     7    10    1
    77   114   112   ar
    78   148   150   ar
    79   148   149   ar
    80    38    37    1
    81    38    39    1
    82   111   110   ar
    83   150   152   ar
    84    10    11    1
    85   149   151   ar
    86   112   110   ar
    87   110   109    1
    88    39    40    1
    89   108   107    2
    90   160   159    1
    91   161   159    1
    92    11    12   ar
    93    11    13   ar
    94    40    41    2
    95   152   153   ar
    96   159   158    1
    97    12    14   ar
    98   151   153   ar
    99   120   119    2
   100    13    15   ar
   101   154   155    1
   102   107   106    1
   103   107   117   am
   104    14    16   ar
   105   109   106    1
   106   106   105    1
   107    41    42    1
   108    41    43    1
   109   102   101    2
   110   119   118    1
   111   158   155    1
   112    15    16   ar
   113    16    17    1
   114    24    25    1
   115   155   156    1
   116   118   117    1
   117   118   121    1
   118    27    26    2
   119    28    25    1
   120    28    29    1
   121   105   101   am
   122   101   100    1
   123    23    22    1
   124    25    26    1
   125   104   103    1
   126    29    30    1
   127   156   157    2
   128   103   100    1
   129    21    20    2
   130   121   122    1
   131   100    99    1
   132   124   122   ar
   133   124   126   ar
   134    22    19    1
   135    19    20    1
   136    19    18    1
   137   122   123   ar
   138   168   167    1
   139    98    97    1
   140    30    31    1
   141   126   125   ar
   142    96    95    2
   143    99    95   am
   144    95    94    1
   145   123   125   ar
   146    31    32    1
   147   167   169    1
   148   167   166    1
   149    97    94    1
   150    94    93    1
   151   166   163    1
   152   162   163    1
   153   163   164    1
   154    87    86    2
   155   164   165    2
   156    86    85    1
   157    85    88    1
   158    85    84    1
   159    88    89    1
   160    89    90    1
   161    90    91    1
   162    91    92    1
