@<TRIPOS>MOLECULE
tmp/6nauA00.pdb
 87 83 0 0 0
SMALL
GASTEIGER

@<TRIPOS>ATOM
      1  N         65.8680   34.1740    8.7650 N.3   140  ASP140     -0.1239
      2  CA        65.7900   35.4670    9.4700 C.3   140  ASP140      0.1674
      3  C         67.0200   35.7310   10.3520 C.2   140  ASP140      0.2266
      4  O         67.0490   36.7540   11.0610 O.2   140  ASP140     -0.2867
      5  CB        64.4910   35.5910   10.2640 C.3   140  ASP140      0.1410
      6  CG        64.3860   34.7260   11.5050 C.2   140  ASP140      0.3668
      7  OD1       65.3360   33.9470   11.8020 O.co2 140  ASP140     -0.2456
      8  OD2       63.3630   34.8630   12.1910 O.co2 140  ASP140     -0.2456
      9  N         67.9480   34.4290   13.0640 N.3   142  ARG142     -0.1231
     10  CA        67.8310   34.3200   14.5170 C.3   142  ARG142      0.1694
     11  C         68.1700   32.9320   15.0730 C.2   142  ARG142      0.2592
     12  O         68.5520   32.8360   16.2540 O.2   142  ARG142     -0.2718
     13  CB        66.3910   34.5280   14.9800 C.3   142  ARG142      0.0321
     14  CG        65.8140   35.9200   14.7640 C.3   142  ARG142      0.0489
     15  CD        64.4090   35.9450   15.3300 C.3   142  ARG142      0.2205
     16  NE        63.6950   37.1780   15.0930 N.pl3 142  ARG142     -0.0865
     17  CZ        62.4000   37.3320   15.3070 C.cat 142  ARG142      0.5346
     18  NH1       61.8180   38.4730   14.9820 N.pl3 142  ARG142      0.1354
     19  NH2       61.6960   36.3430   15.8340 N.pl3 142  ARG142      0.1354
     20  N         68.0190   31.8750   14.2660 N.am  143  THR143     -0.1953
     21  CA        68.0450   30.5260   14.7980 C.3   143  THR143      0.1897
     22  C         68.9750   29.6170   14.0080 C.2   143  THR143      0.2313
     23  O         68.8660   29.5360   12.7890 O.2   143  THR143     -0.2863
     24  CB        66.6420   29.9130   14.7630 C.3   143  THR143      0.1794
     25  OG1       65.7330   30.8060   15.4060 O.3   143  THR143     -0.2208
     26  CG2       66.5920   28.5460   15.4070 C.3   143  THR143      0.0378
     27  N         69.1240   29.9800   19.5380 N.3   158  THR158     -0.1218
     28  CA        69.1080   31.3790   19.2130 C.3   158  THR158      0.1862
     29  C         70.5520   31.8590   19.0890 C.2   158  THR158      0.2287
     30  O         71.3830   31.5460   19.9380 O.2   158  THR158     -0.2866
     31  CB        68.4180   32.2050   20.2950 C.3   158  THR158      0.1770
     32  OG1       67.0270   31.8760   20.2710 O.3   158  THR158     -0.2211
     33  CG2       68.5930   33.6840   20.0780 C.3   158  THR158      0.0375
     34  N         66.6180   27.1730   22.3360 N.3   168  GLN168     -0.1231
     35  CA        65.3120   27.7860   22.3290 C.3   168  GLN168      0.1698
     36  C         64.3190   26.8460   23.0200 C.2   168  GLN168      0.2592
     37  O         64.6710   25.7710   23.5080 O.2   168  GLN168     -0.2718
     38  CB        64.8400   28.0190   20.8980 C.3   168  GLN168      0.0381
     39  CG        65.7000   28.9990   20.1360 C.3   168  GLN168      0.0905
     40  CD        65.1720   29.2760   18.7460 C.2   168  GLN168      0.2608
     41  OE1       64.3430   28.5170   18.2150 O.2   168  GLN168     -0.2717
     42  NE2       65.5830   30.4220   18.1970 N.am  168  GLN168     -0.0878
     43  N         63.0690   27.3120   23.0990 N.am  169  GLU169     -0.1966
     44  CA        61.9560   26.5140   23.5790 C.3   169  GLU169      0.1718
     45  C         60.9360   26.4290   22.4470 C.2   169  GLU169      0.2458
     46  O         60.3310   27.4470   22.1050 O.2   169  GLU169     -0.2730
     47  CB        61.3000   27.1700   24.7940 C.3   169  GLU169      0.0428
     48  CG        60.0340   26.4610   25.2430 C.3   169  GLU169      0.1163
     49  CD        60.2310   25.0130   25.6500 C.2   169  GLU169      0.3649
     50  OE1       59.4510   24.1530   25.1700 O.co2 169  GLU169     -0.2457
     51  OE2       61.1460   24.7480   26.4680 O.co2 169  GLU169     -0.2457
     52  N         60.7060   25.2510   21.8150 N.am  170  PRO170     -0.2727
     53  CA        61.3780   24.0010   22.1710 C.3   170  PRO170      0.1402
     54  C         62.8450   23.9700   21.7250 C.2   170  PRO170      0.2269
     55  O         63.2210   24.6800   20.7770 O.2   170  PRO170     -0.2865
     56  CB        60.5780   22.9440   21.4010 C.3   170  PRO170      0.0296
     57  CG        60.0930   23.6810   20.1860 C.3   170  PRO170      0.0237
     58  CD        59.7610   25.0670   20.7070 C.3   170  PRO170      0.0939
     59  N         50.0480   28.6030   14.4360 N.3   212  LYS212     -0.1231
     60  CA        50.1970   28.7030   15.8920 C.3   212  LYS212      0.1693
     61  C         51.5650   29.2870   16.2380 C.2   212  LYS212      0.2593
     62  O         51.8630   29.5300   17.4090 O.2   212  LYS212     -0.2718
     63  CB        50.0060   27.3370   16.5450 C.3   212  LYS212      0.0285
     64  CG        48.6250   26.7370   16.3390 C.3   212  LYS212      0.0035
     65  CD        48.4100   25.4400   17.0760 C.3   212  LYS212      0.0206
     66  CE        47.0120   24.8900   16.8910 C.3   212  LYS212      0.1093
     67  NZ        46.7940   23.6800   17.7200 N.3   212  LYS212     -0.1314
     68  N         52.3840   29.5100   15.2070 N.am  213  GLY213     -0.1942
     69  CA        53.6960   30.0770   15.3840 C.3   213  GLY213      0.2014
     70  C         54.7560   29.0140   15.6150 C.2   213  GLY213      0.2639
     71  O         55.8890   29.3690   15.9260 O.2   213  GLY213     -0.2714
     72  N         54.4070   27.7430   15.3680 N.am  214  ASN214     -0.1958
     73  CA        55.3080   26.5940   15.6370 C.3   214  ASN214      0.1819
     74  C         55.9610   26.0120   14.3720 C.2   214  ASN214      0.2621
     75  O         55.4990   26.1980   13.2420 O.2   214  ASN214     -0.2715
     76  CB        54.5460   25.4310   16.2670 C.3   214  ASN214      0.1195
     77  CG        53.8540   25.8280   17.5520 C.2   214  ASN214      0.2630
     78  OD1       54.4090   26.6010   18.3330 O.2   214  ASN214     -0.2716
     79  ND2       52.6460   25.3240   17.7540 N.am  214  ASN214     -0.0877
     80  N         57.0650   25.2880   14.6020 N.am  215  ILE215     -0.1977
     81  CA        57.7500   24.5340   13.5860 C.3   215  ILE215      0.1596
     82  C         57.1040   23.1490   13.5310 C.2   215  ILE215      0.2287
     83  O         57.0090   22.4610   14.5530 O.2   215  ILE215     -0.2864
     84  CB        59.2520   24.4120   13.8920 C.3   215  ILE215      0.0276
     85  CG1       59.9420   25.7740   13.9730 C.3   215  ILE215      0.0022
     86  CG2       59.8930   23.4780   12.8740 C.3   215  ILE215      0.0022
     87  CD1       61.3350   25.7250   14.6030 C.3   215  ILE215      0.0001
@<TRIPOS>BOND
     1     1     2    1
     2     2     5    1
     3     2     3    1
     4     5     6    1
     5     3     4    2
     6     6     7   ar
     7     6     8   ar
     8    23    22    2
     9    86    84    1
    10     9    10    1
    11    75    74    2
    12    82    81    1
    13    82    83    2
    14    81    84    1
    15    81    80    1
    16    84    85    1
    17    85    87    1
    18    22    21    1
    19    20    21    1
    20    20    11   am
    21    74    80   am
    22    74    73    1
    23    59    60    1
    24    10    13    1
    25    10    11    1
    26    24    21    1
    27    24    25    1
    28    24    26    1
    29    14    13    1
    30    14    15    1
    31    18    17    1
    32    11    12    2
    33    16    17    2
    34    16    15    1
    35    68    69    1
    36    68    61   am
    37    17    19    1
    38    72    70   am
    39    72    73    1
    40    69    70    1
    41    70    71    2
    42    73    76    1
    43    60    61    1
    44    60    63    1
    45    61    62    2
    46    76    77    1
    47    64    63    1
    48    64    65    1
    49    66    65    1
    50    66    67    1
    51    77    79   am
    52    77    78    2
    53    42    40   am
    54    41    40    2
    55    40    39    1
    56    29    28    1
    57    29    30    2
    58    28    27    1
    59    28    31    1
    60    33    31    1
    61    39    38    1
    62    57    58    1
    63    57    56    1
    64    32    31    1
    65    58    52    1
    66    55    54    2
    67    38    35    1
    68    56    53    1
    69    54    53    1
    70    52    53    1
    71    52    45   am
    72    46    45    2
    73    35    34    1
    74    35    36    1
    75    45    44    1
    76    36    43   am
    77    36    37    2
    78    43    44    1
    79    44    47    1
    80    47    48    1
    81    50    49   ar
    82    48    49    1
    83    49    51   ar
