@<TRIPOS>MOLECULE
tmp/6nb2B00.pdb
 135 125 0 0 0
SMALL
GASTEIGER

@<TRIPOS>ATOM
      1  N         30.7130   11.4690   45.3250 N.3    43  GLY43      -0.1210
      2  CA        31.8520   10.8110   45.9360 C.3    43  GLY43       0.1956
      3  C         32.2130    9.4740   45.3050 C.2    43  GLY43       0.2612
      4  O         31.4370    8.8560   44.5750 O.2    43  GLY43      -0.2717
      5  N         33.4380    9.0280   45.5880 N.am   44  ALA44      -0.1965
      6  CA        33.8650    7.6680   45.2720 C.3    44  ALA44       0.1728
      7  C         33.8420    6.7940   46.5220 C.2    44  ALA44       0.2616
      8  O         33.1830    5.7530   46.5630 O.2    44  ALA44      -0.2715
      9  CB        35.2760    7.6860   44.6690 C.3    44  ALA44       0.0334
     10  N         34.5540    7.2190   47.5610 N.am   45  SER45      -0.1950
     11  CA        34.5670    6.4800   48.8210 C.3    45  SER45       0.1924
     12  C         33.4050    7.0010   49.6610 C.2    45  SER45       0.2314
     13  O         33.5690    7.8200   50.5690 O.2    45  SER45      -0.2863
     14  CB        35.9100    6.6500   49.5190 C.3    45  SER45       0.2116
     15  OG        36.3160    8.0100   49.5020 O.3    45  SER45      -0.2180
     16  N         40.9490    7.1970   45.0210 N.3   158  HIS158     -0.1241
     17  CA        41.0930    8.3500   44.1350 C.3   158  HIS158      0.1621
     18  C         42.2290    8.2200   43.1370 C.2   158  HIS158      0.2264
     19  O         42.4520    9.1580   42.3640 O.2   158  HIS158     -0.2867
     20  CB        41.3230    9.6160   44.9520 C.3   158  HIS158      0.0745
     21  CG        40.1820    9.9550   45.8600 C.ar  158  HIS158      0.0817
     22  ND1       40.2650   10.9480   46.8120 N.ar  158  HIS158     -0.2268
     23  CD2       38.9350    9.4370   45.9590 C.ar  158  HIS158      0.1154
     24  CE1       39.1170   11.0260   47.4640 C.ar  158  HIS158      0.1986
     25  NE2       38.2950   10.1130   46.9750 N.ar  158  HIS158     -0.2212
     26  N         44.0340    7.5580   51.6940 N.3   166  GLN166     -0.1231
     27  CA        43.3820    8.2100   50.5640 C.3   166  GLN166      0.1698
     28  C         43.9880    9.5790   50.2670 C.2   166  GLN166      0.2592
     29  O         44.1260    9.9570   49.0960 O.2   166  GLN166     -0.2718
     30  CB        41.8880    8.3290   50.8390 C.3   166  GLN166      0.0381
     31  CG        41.0770    8.8560   49.6620 C.3   166  GLN166      0.0905
     32  CD        39.6000    8.8480   49.9950 C.2   166  GLN166      0.2608
     33  OE1       38.9170    7.8430   49.8080 O.2   166  GLN166     -0.2717
     34  NE2       39.1100    9.9630   50.5300 N.am  166  GLN166     -0.0878
     35  N         44.3300   10.3580   51.3010 N.am  167  GLU167     -0.1979
     36  CA        44.7150   11.7520   51.0970 C.3   167  GLU167      0.1602
     37  C         45.8670   12.1380   52.0080 C.2   167  GLU167      0.2287
     38  O         45.7860   11.9520   53.2290 O.2   167  GLU167     -0.2864
     39  CB        43.5220   12.6980   51.3390 C.3   167  GLU167      0.0415
     40  CG        42.2320   12.1760   50.7190 C.3   167  GLU167      0.1163
     41  CD        41.0350   13.0680   50.9620 C.2   167  GLU167      0.3649
     42  OE1       41.1940   14.1250   51.6120 O.co2 167  GLU167     -0.2457
     43  OE2       39.9340   12.7020   50.4900 O.co2 167  GLU167     -0.2457
     44  N         41.8150   14.1200   42.6530 N.3   208  GLU208     -0.1245
     45  CA        41.7390   15.4170   43.3110 C.3   208  GLU208      0.1567
     46  C         42.9420   16.2910   42.9890 C.2   208  GLU208      0.2260
     47  O         43.1840   17.2850   43.6780 O.2   208  GLU208     -0.2867
     48  CB        41.5710   15.2480   44.8170 C.3   208  GLU208      0.0388
     49  CG        40.2660   14.5240   45.1540 C.3   208  GLU208      0.1160
     50  CD        39.9020   14.5780   46.6300 C.2   208  GLU208      0.3649
     51  OE1       38.7600   14.1950   46.9390 O.co2 208  GLU208     -0.2457
     52  OE2       40.7390   14.9900   47.4650 O.co2 208  GLU208     -0.2457
     53  N         43.5750   11.9910   55.3600 N.3   245  ASP245     -0.1239
     54  CA        42.2980   11.2900   55.2570 C.3   245  ASP245      0.1674
     55  C         42.6380    9.8370   54.9330 C.2   245  ASP245      0.2266
     56  O         43.0100    9.5090   53.8050 O.2   245  ASP245     -0.2867
     57  CB        41.3670   11.9050   54.2130 C.3   245  ASP245      0.1410
     58  CG        39.9980   11.2170   54.1730 C.2   245  ASP245      0.3668
     59  OD1       39.1150   11.6690   53.4140 O.co2 245  ASP245     -0.2456
     60  OD2       39.7890   10.2300   54.9140 O.co2 245  ASP245     -0.2456
     61  N         40.4740    7.3100   55.1160 N.3   247  ALA247     -0.1245
     62  CA        39.3140    6.6000   54.5660 C.3   247  ALA247      0.1562
     63  C         39.3650    5.1190   54.9550 C.2   247  ALA247      0.2260
     64  O         39.2790    4.2130   54.1240 O.2   247  ALA247     -0.2867
     65  CB        39.2250    6.7910   53.0400 C.3   247  ALA247      0.0290
     66  N         41.5350   12.1820   59.4880 N.3   288  GLU288     -0.1245
     67  CA        40.1440   11.9840   59.1020 C.3   288  GLU288      0.1567
     68  C         39.8910   10.5080   58.8220 C.2   288  GLU288      0.2260
     69  O         40.7150    9.8390   58.1930 O.2   288  GLU288     -0.2867
     70  CB        39.7910   12.8140   57.8670 C.3   288  GLU288      0.0388
     71  CG        38.4020   12.5270   57.3040 C.3   288  GLU288      0.1160
     72  CD        38.1620   13.2540   55.9820 C.2   288  GLU288      0.3649
     73  OE1       38.8900   14.2330   55.7120 O.co2 288  GLU288     -0.2457
     74  OE2       37.2850   12.8250   55.1960 O.co2 288  GLU288     -0.2457
     75  N         34.1540   11.4870   58.8310 N.3   315  ASP315     -0.1239
     76  CA        33.5910   11.7280   57.5030 C.3   315  ASP315      0.1674
     77  C         32.4810   10.7050   57.2650 C.2   315  ASP315      0.2266
     78  O         31.3020   10.9910   57.5180 O.2   315  ASP315     -0.2867
     79  CB        34.7000   11.6650   56.4310 C.3   315  ASP315      0.1410
     80  CG        34.1630   11.7590   55.0000 C.2   315  ASP315      0.3668
     81  OD1       32.9660   12.0420   54.8110 O.co2 315  ASP315     -0.2456
     82  OD2       34.9470   11.5370   54.0490 O.co2 315  ASP315     -0.2456
     83  N         33.5510   16.3120   59.0110 N.3   338  LEU338     -0.1245
     84  CA        33.7200   16.7600   57.6340 C.3   338  LEU338      0.1561
     85  C         32.3520   17.1000   57.0680 C.2   338  LEU338      0.2260
     86  O         31.4520   16.2550   57.0830 O.2   338  LEU338     -0.2867
     87  CB        34.3650   15.6610   56.7960 C.3   338  LEU338      0.0270
     88  CG        34.9300   16.1920   55.4760 C.3   338  LEU338      0.0019
     89  CD1       36.2760   16.8590   55.7370 C.3   338  LEU338      0.0001
     90  CD2       35.0920   15.0550   54.4610 C.3   338  LEU338      0.0001
     91  N         29.9190   17.7250   54.1540 N.3   340  LYS340     -0.1245
     92  CA        29.6890   17.4560   52.7280 C.3   340  LYS340      0.1561
     93  C         28.2000   17.6240   52.4700 C.2   340  LYS340      0.2260
     94  O         27.4080   16.7630   52.8660 O.2   340  LYS340     -0.2867
     95  CB        30.1150   16.0410   52.3410 C.3   340  LYS340      0.0271
     96  CG        31.6100   15.7830   52.2040 C.3   340  LYS340      0.0035
     97  CD        31.8440   14.2820   52.2280 C.3   340  LYS340      0.0206
     98  CE        33.2210   13.9040   51.7380 C.3   340  LYS340      0.1093
     99  NZ        33.4640   12.4370   51.9220 N.3   340  LYS340     -0.1314
    100  N         34.9240   19.3200   49.6330 N.3   368  HIS368     -0.1226
    101  CA        34.5290   18.8780   48.3010 C.3   368  HIS368      0.1752
    102  C         34.1810   17.3810   48.3210 C.2   368  HIS368      0.2596
    103  O         34.3190   16.6900   49.3400 O.2   368  HIS368     -0.2718
    104  CB        35.6760   19.1420   47.3190 C.3   368  HIS368      0.0759
    105  CG        36.9440   18.4110   47.6640 C.ar  368  HIS368      0.0818
    106  ND1       38.0140   18.3260   46.7970 N.ar  368  HIS368     -0.2268
    107  CD2       37.3170   17.7410   48.7860 C.ar  368  HIS368      0.1154
    108  CE1       38.9870   17.6330   47.3630 C.ar  368  HIS368      0.1986
    109  NE2       38.5920   17.2690   48.5740 N.ar  368  HIS368     -0.2212
    110  N         33.7420   16.8620   47.1730 N.am  369  ARG369     -0.1966
    111  CA        33.8300   15.4360   46.8730 C.3   369  ARG369      0.1729
    112  C         34.9120   15.2080   45.8270 C.2   369  ARG369      0.2616
    113  O         35.3570   16.1270   45.1350 O.2   369  ARG369     -0.2715
    114  CB        32.5170   14.8460   46.3340 C.3   369  ARG369      0.0348
    115  CG        31.2790   15.0310   47.2000 C.3   369  ARG369      0.0492
    116  CD        31.5400   14.5620   48.6330 C.3   369  ARG369      0.2205
    117  NE        31.8450   13.1330   48.7940 N.pl3 369  ARG369     -0.0865
    118  CZ        30.9630   12.2210   49.2120 C.cat 369  ARG369      0.5346
    119  NH1       29.6970   12.5670   49.4470 N.pl3 369  ARG369      0.1354
    120  NH2       31.3350   10.9560   49.3970 N.pl3 369  ARG369      0.1354
    121  N         35.2930   13.9410   45.6760 N.am  370  SER370     -0.1950
    122  CA        36.3140   13.6130   44.6960 C.3   370  SER370      0.1924
    123  C         35.7920   13.7860   43.2740 C.2   370  SER370      0.2314
    124  O         36.5800   14.0430   42.3570 O.2   370  SER370     -0.2863
    125  CB        36.8210   12.1910   44.9310 C.3   370  SER370      0.2116
    126  OG        35.7610   11.2610   44.8580 O.3   370  SER370     -0.2180
    127  N         38.6240   21.7380   52.8500 N.3   391  LYS391     -0.1245
    128  CA        39.3020   20.6510   52.1510 C.3   391  LYS391      0.1561
    129  C         38.7320   20.6400   50.7360 C.2   391  LYS391      0.2260
    130  O         37.5950   20.2060   50.5220 O.2   391  LYS391     -0.2867
    131  CB        39.0850   19.3140   52.8480 C.3   391  LYS391      0.0271
    132  CG        39.9910   18.2150   52.2870 C.3   391  LYS391      0.0035
    133  CD        39.8460   16.8830   53.0310 C.3   391  LYS391      0.0206
    134  CE        38.6220   16.1000   52.5630 C.3   391  LYS391      0.1093
    135  NZ        38.7010   14.6870   53.0430 N.3   391  LYS391     -0.1314
@<TRIPOS>BOND
     1   124   123    2
     2    19    18    2
     3    44    45    1
     4    46    45    1
     5    46    47    2
     6    18    17    1
     7   123   122    1
     8    45    48    1
     9    17    20    1
    10    17    16    1
    11     4     3    2
    12     9     6    1
    13   122   125    1
    14   122   121    1
    15    48    49    1
    16   126   125    1
    17    20    21    1
    18   113   112    2
    19    49    50    1
    20     6     5    1
    21     6     7    1
    22     3     5   am
    23     3     2    1
    24     1     2    1
    25   121   112   am
    26   112   111    1
    27    21    23   ar
    28    21    22   ar
    29    23    25   ar
    30   114   111    1
    31   114   115    1
    32     7     8    2
    33     7    10   am
    34    50    51   ar
    35    50    52   ar
    36   106   108   ar
    37   106   105   ar
    38    22    24   ar
    39   111   110    1
    40    25    24   ar
    41   110   102   am
    42   115   116    1
    43   104   105    1
    44   104   101    1
    45   108   109   ar
    46    10    11    1
    47   105   107   ar
    48   101   102    1
    49   101   100    1
    50   102   103    2
    51   109   107   ar
    52   116   117    1
    53   117   118    2
    54    11    14    1
    55    11    12    1
    56    29    28    2
    57   118   120    1
    58   118   119    1
    59    15    14    1
    60    12    13    2
    61    31    32    1
    62    31    30    1
    63    33    32    2
    64    32    34   am
    65    28    27    1
    66    28    35   am
    67    43    41   ar
    68   130   129    2
    69    27    30    1
    70    27    26    1
    71    40    41    1
    72    40    39    1
    73   129   128    1
    74    41    42   ar
    75    36    35    1
    76    36    39    1
    77    36    37    1
    78    98    99    1
    79    98    97    1
    80    37    38    2
    81   128   131    1
    82   128   127    1
    83    96    97    1
    84    96    95    1
    85   132   131    1
    86   132   133    1
    87    95    92    1
    88    93    92    1
    89    93    94    2
    90   134   133    1
    91   134   135    1
    92    92    91    1
    93    65    62    1
    94    59    58   ar
    95    56    55    2
    96    82    80   ar
    97    64    63    2
    98    58    57    1
    99    58    60   ar
   100    57    54    1
   101    90    88    1
   102    62    63    1
   103    62    61    1
   104    81    80   ar
   105    55    54    1
   106    80    79    1
   107    74    72   ar
   108    54    53    1
   109    88    89    1
   110    88    87    1
   111    73    72   ar
   112    72    71    1
   113    79    76    1
   114    87    84    1
   115    85    86    2
   116    85    84    1
   117    77    76    1
   118    77    78    2
   119    71    70    1
   120    76    75    1
   121    84    83    1
   122    70    67    1
   123    69    68    2
   124    68    67    1
   125    67    66    1
