@<TRIPOS>MOLECULE
tmp/6nb4C02.pdb
 86 80 0 0 0
SMALL
GASTEIGER

@<TRIPOS>ATOM
      1  N        223.8500  279.1610  230.4900 N.3     3  ASP3       -0.1225
      2  CA       222.8790  280.1210  229.9930 C.3     3  ASP3        0.1805
      3  C        222.3530  280.9650  231.1420 C.2     3  ASP3        0.2598
      4  O        221.7850  280.4380  232.0980 O.2     3  ASP3       -0.2718
      5  CB       221.7270  279.4050  229.2820 C.3     3  ASP3        0.1424
      6  CG       220.7270  280.3630  228.6290 C.2     3  ASP3        0.3668
      7  OD1      220.6490  281.5010  229.0480 O.co2   3  ASP3       -0.2456
      8  OD2      220.0580  279.9520  227.7090 O.co2   3  ASP3       -0.2456
      9  N        222.6230  282.2620  231.0910 N.am    4  VAL4       -0.1966
     10  CA       222.2340  283.1680  232.1590 C.3     4  VAL4        0.1727
     11  C        221.2230  284.1930  231.6610 C.2     4  VAL4        0.2617
     12  O        221.0910  285.2850  232.2240 O.2     4  VAL4       -0.2715
     13  CB       223.4670  283.8740  232.7460 C.3     4  VAL4        0.0290
     14  CG1      224.3830  282.8480  233.4080 C.3     4  VAL4        0.0023
     15  CG2      224.2090  284.6250  231.6510 C.3     4  VAL4        0.0023
     16  N        220.5100  283.8340  230.6020 N.am    5  GLY5       -0.1941
     17  CA       219.4670  284.6790  230.0540 C.3     5  GLY5        0.1998
     18  C        220.0190  285.6370  229.0020 C.2     5  GLY5        0.2480
     19  O        221.2140  285.6230  228.7080 O.2     5  GLY5       -0.2729
     20  N        219.1390  286.4490  228.4030 N.am    6  PRO6       -0.2726
     21  CA       219.3920  287.4000  227.3360 C.3     6  PRO6        0.1402
     22  C        220.1140  288.6520  227.8100 C.2     6  PRO6        0.2269
     23  O        220.1000  288.9800  229.0020 O.2     6  PRO6       -0.2865
     24  CB       217.9750  287.7260  226.8510 C.3     6  PRO6        0.0296
     25  CG       217.1010  287.5400  228.0810 C.3     6  PRO6        0.0237
     26  CD       217.7340  286.3860  228.8380 C.3     6  PRO6        0.0939
     27  N        222.0800  285.5920  244.5460 N.3   164  ARG164     -0.1245
     28  CA       222.5700  284.9900  243.3230 C.3   164  ARG164      0.1563
     29  C        224.0650  285.1940  243.1880 C.2   164  ARG164      0.2260
     30  O        224.5710  286.3040  243.3680 O.2   164  ARG164     -0.2867
     31  CB       221.8750  285.5780  242.1160 C.3   164  ARG164      0.0307
     32  CG       222.3120  284.9900  240.7840 C.3   164  ARG164      0.0489
     33  CD       221.6150  285.6170  239.6670 C.3   164  ARG164      0.2205
     34  NE       220.1960  285.2800  239.6380 N.pl3 164  ARG164     -0.0865
     35  CZ       219.1990  286.1260  239.9710 C.cat 164  ARG164      0.5346
     36  NH1      219.4850  287.3320  240.3970 N.pl3 164  ARG164      0.1354
     37  NH2      217.9430  285.7430  239.8680 N.pl3 164  ARG164      0.1354
     38  N        210.2660  290.3820  242.3110 N.3   203  ASN203     -0.1240
     39  CA       211.0320  290.3740  241.0890 C.3   203  ASN203      0.1653
     40  C        212.4060  289.8100  241.3440 C.2   203  ASN203      0.2266
     41  O        213.3440  290.5350  241.6750 O.2   203  ASN203     -0.2867
     42  CB       211.1180  291.7570  240.4990 C.3   203  ASN203      0.1155
     43  CG       211.7780  291.7700  239.1540 C.2   203  ASN203      0.2627
     44  OD1      212.3990  290.7740  238.7270 O.2   203  ASN203     -0.2716
     45  ND2      211.6700  292.8870  238.4720 N.am  203  ASN203     -0.0877
     46  N        214.5850  288.8990  239.4990 N.3   205  ASN205     -0.1240
     47  CA       215.5980  289.2740  238.5210 C.3   205  ASN205      0.1653
     48  C        215.8280  290.7840  238.4960 C.2   205  ASN205      0.2266
     49  O        216.5010  291.2980  237.6040 O.2   205  ASN205     -0.2867
     50  CB       215.2070  288.7800  237.1390 C.3   205  ASN205      0.1155
     51  CG       215.2650  287.2920  237.0270 C.2   205  ASN205      0.2627
     52  OD1      214.6790  286.5810  237.8550 O.2   205  ASN205     -0.2716
     53  ND2      215.9630  286.8010  236.0160 N.am  205  ASN205     -0.0877
     54  N        219.6110  291.5740  239.0440 N.3   208  LEU208     -0.1231
     55  CA       220.3850  291.0110  237.9510 C.3   208  LEU208      0.1693
     56  C        220.1730  291.8080  236.6770 C.2   208  LEU208      0.2592
     57  O        221.1260  292.0870  235.9490 O.2   208  LEU208     -0.2718
     58  CB       220.0090  289.5500  237.7150 C.3   208  LEU208      0.0284
     59  CG       220.7630  288.8180  236.5660 C.3   208  LEU208      0.0019
     60  CD1      222.2810  288.7730  236.8610 C.3   208  LEU208      0.0001
     61  CD2      220.1950  287.4110  236.4220 C.3   208  LEU208      0.0001
     62  N        218.9230  292.1780  236.4030 N.am  209  ASN209     -0.1974
     63  CA       218.6280  292.9490  235.2110 C.3   209  ASN209      0.1688
     64  C        219.2900  294.3100  235.2880 C.2   209  ASN209      0.2292
     65  O        219.9090  294.7610  234.3240 O.2   209  ASN209     -0.2864
     66  CB       217.1360  293.0910  235.0240 C.3   209  ASN209      0.1181
     67  CG       216.5030  291.8140  234.6110 C.2   209  ASN209      0.2629
     68  OD1      217.1940  290.8900  234.1630 O.2   209  ASN209     -0.2716
     69  ND2      215.2060  291.7330  234.7410 N.am  209  ASN209     -0.0877
     70  N        222.8140  293.8940  234.4150 N.3   212  LYS212     -0.1245
     71  CA       222.9550  293.6670  232.9750 C.3   212  LYS212      0.1561
     72  C        222.8680  294.9540  232.1730 C.2   212  LYS212      0.2260
     73  O        223.4990  295.0860  231.1250 O.2   212  LYS212     -0.2867
     74  CB       221.9080  292.6820  232.4630 C.3   212  LYS212      0.0271
     75  CG       222.1500  291.2250  232.8330 C.3   212  LYS212      0.0035
     76  CD       221.0490  290.3460  232.2530 C.3   212  LYS212      0.0206
     77  CE       221.3530  288.8660  232.4120 C.3   212  LYS212      0.1093
     78  NZ       220.3060  288.0250  231.7670 N.3   212  LYS212     -0.1314
     79  N        226.2540  279.6970  237.7440 N.3   223  MET223     -0.1245
     80  CA       225.3260  280.5820  238.4150 C.3   223  MET223      0.1570
     81  C        224.4810  279.7860  239.3990 C.2   223  MET223      0.2261
     82  O        223.8360  278.8070  239.0250 O.2   223  MET223     -0.2867
     83  CB       224.4660  281.3270  237.3990 C.3   223  MET223      0.0387
     84  CG       223.4530  282.2860  238.0140 C.3   223  MET223      0.0595
     85  SD       222.5720  283.2530  236.7790 S.3   223  MET223     -0.1393
     86  CE       223.7360  284.5830  236.4520 C.3   223  MET223      0.0692
@<TRIPOS>BOND
     1    24    21    1
     2    24    25    1
     3    21    22    1
     4    21    20    1
     5     8     6   ar
     6    22    23    2
     7    25    26    1
     8    20    26    1
     9    20    18   am
    10     6     7   ar
    11     6     5    1
    12    19    18    2
    13    18    17    1
    14     5     2    1
    15     2     1    1
    16     2     3    1
    17    17    16    1
    18    16    11   am
    19     9     3   am
    20     9    10    1
    21    73    72    2
    22     3     4    2
    23    15    13    1
    24    11    10    1
    25    11    12    2
    26    78    77    1
    27    10    13    1
    28    72    71    1
    29    76    77    1
    30    76    75    1
    31    74    75    1
    32    74    71    1
    33    13    14    1
    34    71    70    1
    35    68    67    2
    36    65    64    2
    37    67    69   am
    38    67    66    1
    39    66    63    1
    40    63    64    1
    41    63    62    1
    42    57    56    2
    43    53    51   am
    44    62    56   am
    45    61    59    1
    46    86    85    1
    47    59    60    1
    48    59    58    1
    49    56    55    1
    50    85    84    1
    51    51    50    1
    52    51    52    2
    53    50    47    1
    54    83    84    1
    55    83    80    1
    56    49    48    2
    57    58    55    1
    58    79    80    1
    59    55    54    1
    60    80    81    1
    61    45    43   am
    62    48    47    1
    63    47    46    1
    64    44    43    2
    65    82    81    2
    66    43    42    1
    67    34    33    1
    68    34    35    2
    69    33    32    1
    70    37    35    1
    71    35    36    1
    72    42    39    1
    73    32    31    1
    74    39    40    1
    75    39    38    1
    76    40    41    2
    77    31    28    1
    78    29    28    1
    79    29    30    2
    80    28    27    1
