@<TRIPOS>MOLECULE
tmp/6nblB01.pdb
 120 115 0 0 0
SMALL
GASTEIGER

@<TRIPOS>ATOM
      1  N         49.2770  -27.7320  -10.1730 N.3    80  PRO80      -0.2116
      2  CA        49.2110  -26.4400   -9.4810 C.3    80  PRO80       0.1372
      3  C         48.6530  -25.3670  -10.4040 C.2    80  PRO80       0.2244
      4  O         49.0300  -25.2710  -11.5740 O.2    80  PRO80      -0.2868
      5  CB        50.6700  -26.1630   -9.1000 C.3    80  PRO80       0.0268
      6  CG        51.3210  -27.5110   -9.0880 C.3    80  PRO80       0.0207
      7  CD        50.6400  -28.2880  -10.1780 C.3    80  PRO80       0.0892
      8  N         54.2150  -21.2480  -12.8800 N.3    84  GLY84      -0.1210
      9  CA        55.5640  -21.5120  -12.4040 C.3    84  GLY84       0.1956
     10  C         55.6680  -22.8000  -11.6080 C.2    84  GLY84       0.2612
     11  O         56.5780  -23.6070  -11.8210 O.2    84  GLY84      -0.2717
     12  N         54.7280  -23.0120  -10.6840 N.am   85  GLU85      -0.1965
     13  CA        54.7730  -24.1890   -9.8240 C.3    85  GLU85       0.1733
     14  C         54.4230  -25.4620  -10.5840 C.2    85  GLU85       0.2616
     15  O         54.9730  -26.5280  -10.2880 O.2    85  GLU85      -0.2715
     16  CB        53.8240  -24.0000   -8.6410 C.3    85  GLU85       0.0429
     17  CG        53.9080  -22.6210   -8.0000 C.3    85  GLU85       0.1163
     18  CD        52.5850  -22.1780   -7.4050 C.2    85  GLU85       0.3649
     19  OE1       52.5950  -21.3160   -6.4990 O.co2  85  GLU85      -0.2457
     20  OE2       51.5350  -22.6920   -7.8470 O.co2  85  GLU85      -0.2457
     21  N         53.5220  -25.3740  -11.5660 N.am   86  ALA86      -0.1963
     22  CA        53.0540  -26.5680  -12.2590 C.3    86  ALA86       0.1728
     23  C         54.1090  -27.1730  -13.1760 C.2    86  ALA86       0.2616
     24  O         53.9550  -28.3250  -13.5940 O.2    86  ALA86      -0.2715
     25  CB        51.7920  -26.2490  -13.0640 C.3    86  ALA86       0.0334
     26  N         55.1690  -26.4340  -13.4980 N.am   87  TYR87      -0.1960
     27  CA        56.1690  -26.9240  -14.4360 C.3    87  TYR87       0.1771
     28  C         57.0690  -27.9510  -13.7630 C.2    87  TYR87       0.2620
     29  O         57.6300  -27.6970  -12.6920 O.2    87  TYR87      -0.2715
     30  CB        57.0070  -25.7700  -14.9880 C.3    87  TYR87       0.0574
     31  CG        57.8970  -26.1590  -16.1520 C.ar   87  TYR87      -0.0198
     32  CD1       57.4060  -26.1740  -17.4520 C.ar   87  TYR87      -0.0009
     33  CD2       59.2280  -26.5080  -15.9510 C.ar   87  TYR87      -0.0009
     34  CE1       58.2150  -26.5260  -18.5200 C.ar   87  TYR87       0.0417
     35  CE2       60.0450  -26.8620  -17.0140 C.ar   87  TYR87       0.0417
     36  CZ        59.5320  -26.8680  -18.2960 C.ar   87  TYR87       0.1957
     37  OH        60.3370  -27.2150  -19.3570 O.3    87  TYR87      -0.2866
     38  N         57.2080  -29.1100  -14.3970 N.am   88  ASP88      -0.1957
     39  CA        58.0790  -30.1760  -13.9190 C.3    88  ASP88       0.1840
     40  C         59.2970  -30.2330  -14.8330 C.2    88  ASP88       0.2622
     41  O         59.1970  -30.6630  -15.9870 O.2    88  ASP88      -0.2715
     42  CB        57.3420  -31.5150  -13.8870 C.3    88  ASP88       0.1450
     43  CG        56.3060  -31.5840  -12.7770 C.2    88  ASP88       0.3671
     44  OD1       56.5460  -30.9980  -11.6990 O.co2  88  ASP88      -0.2456
     45  OD2       55.2540  -32.2250  -12.9820 O.co2  88  ASP88      -0.2456
     46  N         60.4390  -29.7820  -14.3170 N.am   89  PHE89      -0.1974
     47  CA        61.6810  -29.8400  -15.0740 C.3    89  PHE89       0.1639
     48  C         62.0260  -31.2870  -15.4110 C.2    89  PHE89       0.2290
     49  O         61.7660  -32.2070  -14.6300 O.2    89  PHE89      -0.2864
     50  CB        62.8220  -29.1990  -14.2800 C.3    89  PHE89       0.0560
     51  CG        62.5940  -27.7500  -13.9320 C.ar   89  PHE89      -0.0200
     52  CD1       61.8180  -27.3970  -12.8370 C.ar   89  PHE89      -0.0042
     53  CD2       63.1850  -26.7420  -14.6790 C.ar   89  PHE89      -0.0042
     54  CE1       61.6160  -26.0650  -12.5060 C.ar   89  PHE89      -0.0003
     55  CE2       62.9890  -25.4070  -14.3540 C.ar   89  PHE89      -0.0003
     56  CZ        62.2040  -25.0690  -13.2650 C.ar   89  PHE89      -0.0000
     57  N         65.6600  -27.0230  -11.6660 N.3   233  LEU233     -0.1245
     58  CA        64.9000  -27.7310  -10.6410 C.3   233  LEU233      0.1561
     59  C         65.5760  -27.6240   -9.2790 C.2   233  LEU233      0.2260
     60  O         64.8990  -27.4930   -8.2530 O.2   233  LEU233     -0.2867
     61  CB        64.7210  -29.1940  -11.0390 C.3   233  LEU233      0.0270
     62  CG        64.0740  -30.0980   -9.9850 C.3   233  LEU233      0.0019
     63  CD1       62.6520  -29.6380   -9.6720 C.3   233  LEU233      0.0001
     64  CD2       64.0860  -31.5530  -10.4320 C.3   233  LEU233      0.0001
     65  N         64.9050  -23.6870   -8.3520 N.3   236  VAL236     -0.1231
     66  CA        63.5290  -23.2480   -8.1610 C.3   236  VAL236      0.1692
     67  C         62.6990  -24.2710   -7.3860 C.2   236  VAL236      0.2592
     68  O         61.7550  -23.8910   -6.6840 O.2   236  VAL236     -0.2718
     69  CB        62.8980  -22.9340   -9.5290 C.3   236  VAL236      0.0266
     70  CG1       61.4390  -22.5280   -9.3830 C.3   236  VAL236      0.0020
     71  CG2       63.6870  -21.8330  -10.2240 C.3   236  VAL236      0.0020
     72  N         63.0450  -25.5580   -7.4830 N.am  237  GLY237     -0.1957
     73  CA        62.2340  -26.5880   -6.8500 C.3   237  GLY237      0.1869
     74  C         61.9790  -26.3230   -5.3810 C.2   237  GLY237      0.2309
     75  O         60.8330  -26.3110   -4.9290 O.2   237  GLY237     -0.2863
     76  N         59.9520  -22.3870   -2.7160 N.3   240  ASP240     -0.1225
     77  CA        58.6740  -22.0420   -2.1010 C.3   240  ASP240      0.1805
     78  C         58.5960  -22.5450   -0.6620 C.2   240  ASP240      0.2598
     79  O         58.2540  -21.7880    0.2540 O.2   240  ASP240     -0.2718
     80  CB        57.5240  -22.6060   -2.9380 C.3   240  ASP240      0.1424
     81  CG        56.3060  -21.6970   -2.9510 C.2   240  ASP240      0.3668
     82  OD1       56.4030  -20.5510   -2.4610 O.co2 240  ASP240     -0.2456
     83  OD2       55.2480  -22.1310   -3.4550 O.co2 240  ASP240     -0.2456
     84  N         58.9310  -23.8180   -0.4390 N.am  241  THR241     -0.1953
     85  CA        58.7630  -24.3950    0.8920 C.3   241  THR241      0.1897
     86  C         59.7850  -23.8620    1.8870 C.2   241  THR241      0.2313
     87  O         59.4450  -23.6130    3.0480 O.2   241  THR241     -0.2863
     88  CB        58.8580  -25.9090    0.8250 C.3   241  THR241      0.1794
     89  OG1       60.1290  -26.2510    0.2690 O.3   241  THR241     -0.2208
     90  CG2       57.7290  -26.4680   -0.0240 C.3   241  THR241      0.0378
     91  N         53.4070  -29.0230    2.9340 N.3   284  VAL284     -0.1245
     92  CA        53.1220  -29.5470    1.6030 C.3   284  VAL284      0.1561
     93  C         51.8780  -30.4170    1.6820 C.2   284  VAL284      0.2260
     94  O         51.6730  -31.1390    2.6620 O.2   284  VAL284     -0.2867
     95  CB        54.3230  -30.3350    1.0480 C.3   284  VAL284      0.0252
     96  CG1       54.0320  -30.8420   -0.3710 C.3   284  VAL284      0.0019
     97  CG2       55.5740  -29.4700    1.0740 C.3   284  VAL284      0.0019
     98  N         50.2450  -32.6850   -1.2520 N.3   286  ASP286     -0.1239
     99  CA        50.1690  -33.2230   -2.6020 C.3   286  ASP286      0.1674
    100  C         49.4140  -34.5490   -2.5880 C.2   286  ASP286      0.2266
    101  O         48.9270  -35.0050   -1.5490 O.2   286  ASP286     -0.2867
    102  CB        51.5710  -33.3890   -3.1900 C.3   286  ASP286      0.1410
    103  CG        51.6080  -33.1300   -4.6790 C.2   286  ASP286      0.3668
    104  OD1       50.5470  -33.2530   -5.3290 O.co2 286  ASP286     -0.2456
    105  OD2       52.6950  -32.8020   -5.1960 O.co2 286  ASP286     -0.2456
    106  N         48.9680  -26.5060   -2.6530 N.3   384  ILE384     -0.1231
    107  CA        49.8880  -27.6370   -2.6060 C.3   384  ILE384      0.1692
    108  C         51.0740  -27.3110   -1.7040 C.2   384  ILE384      0.2591
    109  O         51.5170  -28.1510   -0.9130 O.2   384  ILE384     -0.2718
    110  CB        50.3230  -28.0300   -4.0310 C.3   384  ILE384      0.0266
    111  CG1       49.1210  -28.5810   -4.8120 C.3   384  ILE384      0.0019
    112  CG2       51.4620  -29.0460   -3.9960 C.3   384  ILE384      0.0020
    113  CD1       49.4410  -28.9960   -6.2320 C.3   384  ILE384      0.0001
    114  N         51.5840  -26.0830   -1.7830 N.am  385  VAL385     -0.1980
    115  CA        52.5740  -25.5650   -0.8420 C.3   385  VAL385      0.1595
    116  C         51.9650  -24.3560   -0.1360 C.2   385  VAL385      0.2287
    117  O         51.8320  -23.2820   -0.7370 O.2   385  VAL385     -0.2864
    118  CB        53.8890  -25.1850   -1.5340 C.3   385  VAL385      0.0276
    119  CG1       54.8140  -24.4850   -0.5510 C.3   385  VAL385      0.0022
    120  CG2       54.5620  -26.4170   -2.1190 C.3   385  VAL385      0.0022
@<TRIPOS>BOND
     1    37    36    1
     2    34    36   ar
     3    34    32   ar
     4    36    35   ar
     5    32    31   ar
     6    35    33   ar
     7    31    33   ar
     8    31    30    1
     9    41    40    2
    10    48    47    1
    11    48    49    2
    12    47    46    1
    13    47    50    1
    14    30    27    1
    15    40    46   am
    16    40    39    1
    17    53    55   ar
    18    53    51   ar
    19    27    28    1
    20    27    26    1
    21    38    39    1
    22    38    28   am
    23    55    56   ar
    24    50    51    1
    25    51    52   ar
    26    39    42    1
    27    42    43    1
    28    28    29    2
    29    24    23    2
    30    26    23   am
    31    56    54   ar
    32    23    22    1
    33    25    22    1
    34    45    43   ar
    35     8     9    1
    36    52    54   ar
    37    43    44   ar
    38     9    10    1
    39    22    21    1
    40    11    10    2
    41    57    58    1
    42    10    12   am
    43     4     3    2
    44    21    14   am
    45    61    58    1
    46    61    62    1
    47    12    13    1
    48    58    59    1
    49    14    15    2
    50    14    13    1
    51    64    62    1
    52     3     2    1
    53    71    69    1
    54     7     1    1
    55     7     6    1
    56     1     2    1
    57    62    63    1
    58    13    16    1
    59    69    70    1
    60    69    66    1
    61     2     5    1
    62    59    60    2
    63     5     6    1
    64    16    17    1
    65    65    66    1
    66    66    67    1
    67    17    18    1
    68    20    18   ar
    69    72    67   am
    70    72    73    1
    71    18    19   ar
    72    67    68    2
    73    73    74    1
    74   113   111    1
    75    74    75    2
    76   104   103   ar
    77   105   103   ar
    78   111   110    1
    79   103   102    1
    80   110   112    1
    81   110   107    1
    82    83    81   ar
    83   102    99    1
    84    81    80    1
    85    81    82   ar
    86    80    77    1
    87    76    77    1
    88   106   107    1
    89   107   108    1
    90    99   100    1
    91    99    98    1
    92   100   101    2
    93   120   118    1
    94    77    78    1
    95   114   108   am
    96   114   115    1
    97   108   109    2
    98   118   115    1
    99   118   119    1
   100   115   116    1
   101   117   116    2
   102    78    84   am
   103    78    79    2
   104    84    85    1
   105    96    95    1
   106    90    88    1
   107    89    88    1
   108    88    85    1
   109    85    86    1
   110    95    97    1
   111    95    92    1
   112    92    93    1
   113    92    91    1
   114    93    94    2
   115    86    87    2
