@<TRIPOS>MOLECULE
tmp/6nbnA00.pdb
 209 200 0 0 0
SMALL
GASTEIGER

@<TRIPOS>ATOM
      1  N          0.2310   12.1090   -2.6330 N.3    11  LEU11      -0.1245
      2  CA        -0.6390   11.0350   -2.1860 C.3    11  LEU11       0.1561
      3  C         -2.0770   11.5180   -2.0340 C.2    11  LEU11       0.2260
      4  O         -3.0180   10.7910   -2.3490 O.2    11  LEU11      -0.2867
      5  CB        -0.1240   10.4440   -0.8720 C.3    11  LEU11       0.0270
      6  CG        -0.9770    9.3200   -0.2970 C.3    11  LEU11       0.0019
      7  CD1       -0.9660    8.1220   -1.2270 C.3    11  LEU11       0.0001
      8  CD2       -0.4830    8.9320    1.0860 C.3    11  LEU11       0.0001
      9  N         -5.1300    9.7000   -4.1690 N.3    15  ARG15      -0.1245
     10  CA        -6.1650    9.1380   -3.3170 C.3    15  ARG15       0.1563
     11  C         -7.5160    9.7940   -3.5890 C.2    15  ARG15       0.2260
     12  O         -8.5510    9.1310   -3.5720 O.2    15  ARG15      -0.2867
     13  CB        -5.7370    9.2780   -1.8500 C.3    15  ARG15       0.0307
     14  CG        -6.7600    9.9260   -0.9290 C.3    15  ARG15       0.0489
     15  CD        -6.2620    9.9340    0.5090 C.3    15  ARG15       0.2205
     16  NE        -7.2150   10.5490    1.4260 N.pl3  15  ARG15      -0.0865
     17  CZ        -7.2940   10.2380    2.7170 C.cat  15  ARG15       0.5346
     18  NH1       -6.5030    9.2950    3.2230 N.pl3  15  ARG15       0.1354
     19  NH2       -8.1730   10.8560    3.4960 N.pl3  15  ARG15       0.1354
     20  N         -9.6630    6.9440    6.4360 N.3    32  PHE32      -0.1241
     21  CA        -8.3560    6.8810    5.7900 C.3    32  PHE32       0.1605
     22  C         -7.4600    8.0400    6.2240 C.2    32  PHE32       0.2264
     23  O         -6.2440    7.8910    6.3240 O.2    32  PHE32      -0.2867
     24  CB        -8.5100    6.9010    4.2670 C.3    32  PHE32       0.0534
     25  CG        -9.4360    5.8470    3.7210 C.ar   32  PHE32      -0.0203
     26  CD1       -9.5520    4.6150    4.3400 C.ar   32  PHE32      -0.0042
     27  CD2      -10.1840    6.0920    2.5820 C.ar   32  PHE32      -0.0042
     28  CE1      -10.3980    3.6490    3.8350 C.ar   32  PHE32      -0.0003
     29  CE2      -11.0330    5.1280    2.0730 C.ar   32  PHE32      -0.0003
     30  CZ       -11.1400    3.9050    2.7010 C.ar   32  PHE32      -0.0000
     31  N         -5.6350    7.2700    9.1580 N.3    35  TRP35      -0.1241
     32  CA        -4.9600    5.9940    8.9150 C.3    35  TRP35       0.1605
     33  C         -5.7520    4.8060    9.4590 C.2    35  TRP35       0.2264
     34  O         -5.2020    3.9320   10.1280 O.2    35  TRP35      -0.2867
     35  CB        -3.5530    6.0170    9.5110 C.3    35  TRP35       0.0550
     36  CG        -2.6420    6.9890    8.8250 C.ar   35  TRP35       0.0003
     37  CD1       -2.5110    8.3180    9.1010 C.ar   35  TRP35       0.0946
     38  CD2       -1.7390    6.7110    7.7460 C.ar   35  TRP35       0.0152
     39  NE1       -1.5770    8.8840    8.2680 N.ar   35  TRP35      -0.2442
     40  CE2       -1.0890    7.9180    7.4280 C.ar   35  TRP35       0.0810
     41  CE3       -1.4140    5.5610    7.0220 C.ar   35  TRP35       0.0012
     42  CZ2       -0.1350    8.0080    6.4200 C.ar   35  TRP35       0.0191
     43  CZ3       -0.4670    5.6510    6.0210 C.ar   35  TRP35       0.0001
     44  CH2        0.1640    6.8640    5.7270 C.ar   35  TRP35       0.0015
     45  N         -8.0540    1.8160    8.0410 N.3    37  PHE37      -0.1241
     46  CA        -8.5020    1.1040    6.8540 C.3    37  PHE37       0.1605
     47  C         -9.2950   -0.1320    7.2540 C.2    37  PHE37       0.2264
     48  O         -8.7230   -1.1220    7.7190 O.2    37  PHE37      -0.2867
     49  CB        -7.2980    0.7020    5.9890 C.3    37  PHE37       0.0534
     50  CG        -6.3740    1.8490    5.6790 C.ar   37  PHE37      -0.0203
     51  CD1       -5.4120    2.2440    6.5980 C.ar   37  PHE37      -0.0042
     52  CD2       -6.4680    2.5350    4.4780 C.ar   37  PHE37      -0.0042
     53  CE1       -4.5660    3.2990    6.3270 C.ar   37  PHE37      -0.0003
     54  CE2       -5.6200    3.5920    4.2020 C.ar   37  PHE37      -0.0003
     55  CZ        -4.6700    3.9740    5.1290 C.ar   37  PHE37      -0.0000
     56  N         -9.8190    0.6990   -3.3380 N.3    46  TYR46      -0.1227
     57  CA        -9.2660    2.0260   -3.1320 C.3    46  TYR46       0.1736
     58  C         -7.7470    1.9570   -3.0400 C.2    46  TYR46       0.2595
     59  O         -7.0410    2.6840   -3.7360 O.2    46  TYR46      -0.2718
     60  CB        -9.8640    2.6360   -1.8610 C.3    46  TYR46       0.0548
     61  CG        -9.0720    3.7950   -1.2920 C.ar   46  TYR46      -0.0200
     62  CD1       -8.9740    5.0050   -1.9710 C.ar   46  TYR46      -0.0009
     63  CD2       -8.4330    3.6770   -0.0640 C.ar   46  TYR46      -0.0009
     64  CE1       -8.2600    6.0610   -1.4380 C.ar   46  TYR46       0.0417
     65  CE2       -7.7160    4.7270    0.4710 C.ar   46  TYR46       0.0417
     66  CZ        -7.6330    5.9160   -0.2180 C.ar   46  TYR46       0.1957
     67  OH        -6.9350    6.9680    0.3200 O.3    46  TYR46      -0.2866
     68  N         -7.2590    1.0540   -2.1970 N.am   47  ILE47      -0.1980
     69  CA        -5.8280    0.8640   -2.0160 C.3    47  ILE47       0.1595
     70  C         -5.1640    0.4470   -3.3250 C.2    47  ILE47       0.2287
     71  O         -4.0710    0.9070   -3.6420 O.2    47  ILE47      -0.2864
     72  CB        -5.5340   -0.1880   -0.9220 C.3    47  ILE47       0.0276
     73  CG1       -6.0000    0.3220    0.4540 C.3    47  ILE47       0.0022
     74  CG2       -4.0520   -0.5480   -0.8940 C.3    47  ILE47       0.0022
     75  CD1       -5.3520    1.6240    0.8840 C.3    47  ILE47       0.0001
     76  N         -4.8610    3.5250   -5.6710 N.3    50  VAL50      -0.1231
     77  CA        -3.8620    4.4490   -5.1610 C.3    50  VAL50       0.1692
     78  C         -2.4550    3.9140   -5.3940 C.2    50  VAL50       0.2592
     79  O         -1.5890    4.6120   -5.9250 O.2    50  VAL50      -0.2718
     80  CB        -4.0780    4.7140   -3.6590 C.3    50  VAL50       0.0266
     81  CG1       -2.9570    5.5590   -3.0870 C.3    50  VAL50       0.0020
     82  CG2       -5.4130    5.3930   -3.4390 C.3    50  VAL50       0.0020
     83  N         -2.2570    2.6540   -5.0360 N.am   51  PHE51      -0.1976
     84  CA        -0.9650    2.0020   -5.1710 C.3    51  PHE51       0.1639
     85  C         -0.5630    1.8850   -6.6370 C.2    51  PHE51       0.2290
     86  O          0.6150    1.7820   -6.9680 O.2    51  PHE51      -0.2864
     87  CB        -1.0170    0.6190   -4.5190 C.3    51  PHE51       0.0560
     88  CG        -0.6830    0.6190   -3.0530 C.ar   51  PHE51      -0.0200
     89  CD1       -0.0670   -0.4780   -2.4750 C.ar   51  PHE51      -0.0042
     90  CD2       -0.9860    1.7110   -2.2540 C.ar   51  PHE51      -0.0042
     91  CE1        0.2390   -0.4880   -1.1270 C.ar   51  PHE51      -0.0003
     92  CE2       -0.6820    1.7070   -0.9070 C.ar   51  PHE51      -0.0003
     93  CZ        -0.0690    0.6060   -0.3430 C.ar   51  PHE51      -0.0000
     94  N          0.5070    5.4170   -7.9350 N.3    54  MET54      -0.1245
     95  CA         1.8000    5.7130   -7.3360 C.3    54  MET54       0.1570
     96  C          2.8880    4.8430   -7.9560 C.2    54  MET54       0.2261
     97  O          4.0610    4.9510   -7.6070 O.2    54  MET54      -0.2867
     98  CB         1.7390    5.4920   -5.8260 C.3    54  MET54       0.0387
     99  CG         0.8850    6.5170   -5.1090 C.3    54  MET54       0.0595
    100  SD         0.4530    6.0270   -3.4310 S.3    54  MET54      -0.1393
    101  CE         1.9930    6.3150   -2.5710 C.3    54  MET54       0.0692
    102  N          3.2920    1.5820   -7.6520 N.3    56  LEU56      -0.1245
    103  CA         3.8430    0.7800   -6.5760 C.3    56  LEU56       0.1561
    104  C          3.2550   -0.6310   -6.5840 C.2    56  LEU56       0.2260
    105  O          3.7960   -1.5490   -5.9650 O.2    56  LEU56      -0.2867
    106  CB         3.5780    1.4820   -5.2360 C.3    56  LEU56       0.0270
    107  CG         4.7440    2.3250   -4.7110 C.3    56  LEU56       0.0019
    108  CD1        4.3410    3.0700   -3.4490 C.3    56  LEU56       0.0001
    109  CD2        5.9560    1.4570   -4.4350 C.3    56  LEU56       0.0001
    110  N          2.9670   -6.4960   -5.9620 N.3    63  PRO63      -0.2116
    111  CA         3.7930   -5.4410   -5.3720 C.3    63  PRO63       0.1372
    112  C          5.1260   -5.2840   -6.0970 C.2    63  PRO63       0.2244
    113  O          5.8870   -6.2450   -6.2450 O.2    63  PRO63      -0.2868
    114  CB         3.9990   -5.9090   -3.9280 C.3    63  PRO63       0.0268
    115  CG         3.7970   -7.3800   -3.9650 C.3    63  PRO63       0.0207
    116  CD         2.8030   -7.6460   -5.0560 C.3    63  PRO63       0.0892
    117  N          9.0550   -0.1880   -4.3180 N.3    68  LEU68      -0.1245
    118  CA         8.6670   -0.2890   -2.9170 C.3    68  LEU68       0.1561
    119  C          9.8080    0.0870   -1.9790 C.2    68  LEU68       0.2260
    120  O          9.6240    0.9020   -1.0800 O.2    68  LEU68      -0.2867
    121  CB         8.1510   -1.6950   -2.6060 C.3    68  LEU68       0.0270
    122  CG         6.6760   -1.9140   -2.9440 C.3    68  LEU68       0.0019
    123  CD1        6.3450   -3.3940   -2.9650 C.3    68  LEU68       0.0001
    124  CD2        5.7950   -1.1970   -1.9390 C.3    68  LEU68       0.0001
    125  N         10.9280    3.7000   -2.3990 N.3    71  GLN71      -0.1231
    126  CA         9.9980    4.6370   -1.7860 C.3    71  GLN71       0.1698
    127  C         10.0690    4.5560   -0.2660 C.2    71  GLN71       0.2592
    128  O         10.3690    5.5450    0.4050 O.2    71  GLN71      -0.2718
    129  CB         8.5720    4.3340   -2.2480 C.3    71  GLN71       0.0381
    130  CG         7.5530    5.3940   -1.8470 C.3    71  GLN71       0.0905
    131  CD         7.9100    6.7830   -2.3430 C.2    71  GLN71       0.2608
    132  OE1        7.5540    7.1750   -3.4540 O.2    71  GLN71      -0.2717
    133  NE2        8.6020    7.5450   -1.5120 N.am   71  GLN71      -0.0878
    134  N          9.7870    3.3710    0.2600 N.am   72  LEU72      -0.1980
    135  CA         9.7060    3.1510    1.7010 C.3    72  LEU72       0.1596
    136  C         11.0180    3.4400    2.4200 C.2    72  LEU72       0.2287
    137  O         11.0120    4.0630    3.4790 O.2    72  LEU72      -0.2864
    138  CB         9.2540    1.7230    2.0070 C.3    72  LEU72       0.0297
    139  CG         7.8030    1.4100    1.6480 C.3    72  LEU72       0.0022
    140  CD1        7.5200   -0.0710    1.8320 C.3    72  LEU72       0.0001
    141  CD2        6.8460    2.2360    2.4960 C.3    72  LEU72       0.0001
    142  N          9.5890   -5.9330    3.0480 N.3    85  VAL85      -0.1245
    143  CA         8.5750   -5.9270    1.9990 C.3    85  VAL85       0.1561
    144  C          8.3000   -7.3410    1.4940 C.2    85  VAL85       0.2260
    145  O          7.1470   -7.7620    1.4000 O.2    85  VAL85      -0.2867
    146  CB         9.0080   -5.0390    0.8120 C.3    85  VAL85       0.0252
    147  CG1        8.1500   -5.3120   -0.4110 C.3    85  VAL85       0.0019
    148  CG2        8.9330   -3.5720    1.1970 C.3    85  VAL85       0.0019
    149  N          6.0310   -9.5900    3.1070 N.3    88  CYS88      -0.1221
    150  CA         4.6280   -9.2540    2.9330 C.3    88  CYS88       0.1808
    151  C          4.1850   -9.4770    1.4910 C.2    88  CYS88       0.2601
    152  O          3.0020   -9.3550    1.1710 O.2    88  CYS88      -0.2717
    153  CB         4.3770   -7.8080    3.3530 C.3    88  CYS88       0.0970
    154  SG         4.1810   -7.5950    5.1510 S.3    88  CYS88      -0.0800
    155  N          5.1370   -9.7930    0.6170 N.am   89  VAL89      -0.1979
    156  CA         4.8200  -10.1130   -0.7620 C.3    89  VAL89       0.1595
    157  C          4.3670  -11.5590   -0.8700 C.2    89  VAL89       0.2287
    158  O          5.0630  -12.4760   -0.4280 O.2    89  VAL89      -0.2864
    159  CB         6.0180   -9.8880   -1.7020 C.3    89  VAL89       0.0276
    160  CG1        5.6540  -10.2900   -3.1210 C.3    89  VAL89       0.0022
    161  CG2        6.4810   -8.4400   -1.6640 C.3    89  VAL89       0.0022
    162  N         -1.0590   -6.9120    0.8980 N.3   104  GLY104     -0.1210
    163  CA         0.3240   -6.4730    0.9640 C.3   104  GLY104      0.1956
    164  C          0.4740   -5.2540    1.8530 C.2   104  GLY104      0.2611
    165  O          1.3620   -5.1960    2.7070 O.2   104  GLY104     -0.2717
    166  N         -0.4250   -4.2930    1.6650 N.am  105  PHE105     -0.1976
    167  CA        -0.4200   -3.0600    2.4380 C.3   105  PHE105      0.1639
    168  C         -0.6970   -3.3410    3.9130 C.2   105  PHE105      0.2290
    169  O          0.0260   -2.8740    4.7910 O.2   105  PHE105     -0.2864
    170  CB        -1.4580   -2.0920    1.8580 C.3   105  PHE105      0.0560
    171  CG        -1.7420   -0.8910    2.7150 C.ar  105  PHE105     -0.0200
    172  CD1       -3.0460   -0.5100    2.9920 C.ar  105  PHE105     -0.0042
    173  CD2       -0.7030   -0.1410    3.2430 C.ar  105  PHE105     -0.0042
    174  CE1       -3.3080    0.5940    3.7770 C.ar  105  PHE105     -0.0003
    175  CE2       -0.9610    0.9660    4.0290 C.ar  105  PHE105     -0.0003
    176  CZ        -2.2650    1.3330    4.2950 C.ar  105  PHE105     -0.0000
    177  N          2.1930   -5.1200    5.7610 N.3   108  PHE108     -0.1241
    178  CA         3.3690   -4.3020    5.9860 C.3   108  PHE108      0.1605
    179  C          3.1110   -3.2600    7.0670 C.2   108  PHE108      0.2264
    180  O          3.8980   -3.1220    7.9980 O.2   108  PHE108     -0.2867
    181  CB         3.7890   -3.6290    4.6820 C.3   108  PHE108      0.0534
    182  CG         5.1740   -3.0500    4.7190 C.ar  108  PHE108     -0.0203
    183  CD1        6.2680   -3.8360    4.3900 C.ar  108  PHE108     -0.0042
    184  CD2        5.3880   -1.7280    5.0780 C.ar  108  PHE108     -0.0042
    185  CE1        7.5460   -3.3150    4.4190 C.ar  108  PHE108     -0.0003
    186  CE2        6.6650   -1.2040    5.1080 C.ar  108  PHE108     -0.0003
    187  CZ         7.7450   -1.9970    4.7770 C.ar  108  PHE108     -0.0000
    188  N          5.9740    3.8470    6.4810 N.3   116  ILE116     -0.1245
    189  CA         5.0330    4.2450    5.4510 C.3   116  ILE116      0.1561
    190  C          4.7760    5.7460    5.5260 C.2   116  ILE116      0.2260
    191  O          4.7670    6.4430    4.5130 O.2   116  ILE116     -0.2867
    192  CB         3.7040    3.4720    5.5860 C.3   116  ILE116      0.0252
    193  CG1        3.9570    1.9650    5.4660 C.3   116  ILE116      0.0019
    194  CG2        2.7010    3.9330    4.5400 C.3   116  ILE116      0.0019
    195  CD1        2.6980    1.1340    5.5350 C.3   116  ILE116      0.0001
    196  N          8.0620    7.5250    4.4960 N.3   119  SER119     -0.1202
    197  CA         8.3920    7.4050    3.0810 C.3   119  SER119      0.2020
    198  C          7.7580    8.5280    2.2660 C.2   119  SER119      0.2618
    199  O          8.3740    9.0620    1.3430 O.2   119  SER119     -0.2717
    200  CB         7.9570    6.0390    2.5440 C.3   119  SER119      0.2103
    201  OG         6.5500    5.8810    2.5800 O.3   119  SER119     -0.2182
    202  N          6.5360    8.8980    2.6270 N.am  120  ILE120     -0.1979
    203  CA         5.8200    9.9530    1.9260 C.3   120  ILE120      0.1595
    204  C          6.1000   11.3140    2.5590 C.2   120  ILE120      0.2287
    205  O          5.6340   12.3440    2.0770 O.2   120  ILE120     -0.2864
    206  CB         4.2990    9.7010    1.9270 C.3   120  ILE120      0.0276
    207  CG1        3.7820    9.5600    3.3580 C.3   120  ILE120      0.0022
    208  CG2        3.9660    8.4590    1.1170 C.3   120  ILE120      0.0022
    209  CD1        2.2760    9.6070    3.4630 C.3   120  ILE120      0.0001
@<TRIPOS>BOND
     1    96    97    2
     2    96    95    1
     3    94    95    1
     4   102   103    1
     5    95    98    1
     6    86    85    2
     7    85    84    1
     8   104   103    1
     9   104   105    2
    10   103   106    1
    11   113   112    2
    12   112   111    1
    13   110   111    1
    14   110   116    1
    15    79    78    2
    16    98    99    1
    17    76    77    1
    18    78    77    1
    19    78    83   am
    20   111   114    1
    21   106   107    1
    22    84    83    1
    23    84    87    1
    24    77    80    1
    25    99   100    1
    26   116   115    1
    27   107   109    1
    28   107   108    1
    29    87    88    1
    30   117   118    1
    31     9    10    1
    32   115   114    1
    33    59    58    2
    34    80    82    1
    35    80    81    1
    36    71    70    2
    37    11    12    2
    38    11    10    1
    39   132   131    2
    40   100   101    1
    41    56    57    1
    42    70    69    1
    43    10    13    1
    44    57    58    1
    45    57    60    1
    46   160   159    1
    47    88    89   ar
    48    88    90   ar
    49    58    68   am
    50   123   122    1
    51   122   121    1
    52   122   124    1
    53   118   121    1
    54   118   119    1
    55     1     2    1
    56    89    91   ar
    57   125   126    1
    58     4     3    2
    59   131   130    1
    60   131   133   am
    61    90    92   ar
    62   129   130    1
    63   129   126    1
    64    68    69    1
    65     2     3    1
    66     2     5    1
    67    69    72    1
    68   119   120    2
    69    62    64   ar
    70    62    61   ar
    71    60    61    1
    72    13    14    1
    73   126   127    1
    74   159   161    1
    75   159   156    1
    76    64    66   ar
    77    61    63   ar
    78     7     6    1
    79    91    93   ar
    80    14    15    1
    81    72    74    1
    82    72    73    1
    83    92    93   ar
    84     5     6    1
    85   157   156    1
    86   157   158    2
    87   156   155    1
    88   147   146    1
    89     6     8    1
    90   127   134   am
    91   127   128    2
    92    66    67    1
    93    66    65   ar
    94    63    65   ar
    95   134   135    1
    96    73    75    1
    97    15    16    1
    98   155   151   am
    99   146   148    1
   100   146   143    1
   101   162   163    1
   102   163   164    1
   103   208   206    1
   104   152   151    2
   105   199   198    2
   106   145   144    2
   107    16    17    2
   108   151   150    1
   109   144   143    1
   110   139   140    1
   111   139   138    1
   112   139   141    1
   113   166   164   am
   114   166   167    1
   115   135   138    1
   116   135   136    1
   117   164   165    2
   118   170   167    1
   119   170   171    1
   120   203   206    1
   121   203   204    1
   122   203   202    1
   123   206   207    1
   124   143   142    1
   125    29    27   ar
   126    29    30   ar
   127   205   204    2
   128   198   202   am
   129   198   197    1
   130   136   137    2
   131   167   168    1
   132   200   201    1
   133   200   197    1
   134    27    25   ar
   135    30    28   ar
   136   171   172   ar
   137   171   173   ar
   138    17    18    1
   139    17    19    1
   140   150   149    1
   141   150   153    1
   142   172   174   ar
   143   197   196    1
   144   173   175   ar
   145   153   154    1
   146   207   209    1
   147    25    24    1
   148    25    26   ar
   149   174   176   ar
   150    28    26   ar
   151   168   169    2
   152   175   176   ar
   153    54    52   ar
   154    54    55   ar
   155    24    21    1
   156   183   185   ar
   157   183   182   ar
   158   185   187   ar
   159    52    50   ar
   160   191   190    2
   161   194   192    1
   162   181   182    1
   163   181   178    1
   164   182   184   ar
   165   187   186   ar
   166   184   186   ar
   167    55    53   ar
   168   189   190    1
   169   189   192    1
   170   189   188    1
   171   193   195    1
   172   193   192    1
   173    50    49    1
   174    50    51   ar
   175    44    43   ar
   176    44    42   ar
   177   177   178    1
   178    21    22    1
   179    21    20    1
   180   178   179    1
   181    49    46    1
   182    43    41   ar
   183    22    23    2
   184    53    51   ar
   185    42    40   ar
   186    46    47    1
   187    46    45    1
   188    41    38   ar
   189   179   180    2
   190    47    48    2
   191    40    38   ar
   192    40    39   ar
   193    38    36   ar
   194    39    37   ar
   195    36    37   ar
   196    36    35    1
   197    32    31    1
   198    32    33    1
   199    32    35    1
   200    33    34    2
