@<TRIPOS>MOLECULE
tmp/6nbpA01.pdb
 152 152 0 0 0
SMALL
GASTEIGER

@<TRIPOS>ATOM
      1  N         17.8860   14.2930   17.4790 N.3    78  SER78      -0.1217
      2  CA        18.2740   14.5340   16.1170 C.3    78  SER78       0.1889
      3  C         17.9200   13.2880   15.2920 C.2    78  SER78       0.2288
      4  O         18.5830   12.2590   15.3700 O.2    78  SER78      -0.2866
      5  CB        19.7250   14.8950   16.0150 C.3    78  SER78       0.2089
      6  OG        20.1420   14.8490   14.6660 O.3    78  SER78      -0.2183
      7  N         17.6980   12.2880   11.9910 N.3    80  HIS80      -0.1226
      8  CA        18.1210   12.6120   10.6540 C.3    80  HIS80       0.1752
      9  C         17.8740   14.1110   10.4330 C.2    80  HIS80       0.2596
     10  O         17.2630   14.5440    9.4650 O.2    80  HIS80      -0.2718
     11  CB        17.3750   11.7730    9.5930 C.3    80  HIS80       0.0759
     12  CG        17.6630   10.3080    9.5470 C.ar   80  HIS80       0.0818
     13  ND1       17.6460    9.6070    8.3580 N.ar   80  HIS80      -0.2268
     14  CD2       17.9020    9.4120   10.5180 C.ar   80  HIS80       0.1154
     15  CE1       17.8530    8.3280    8.6320 C.ar   80  HIS80       0.1986
     16  NE2       18.0180    8.1910    9.9400 N.ar   80  HIS80      -0.2212
     17  N         18.3220   14.8740   11.4220 N.am   81  CYS81      -0.1956
     18  CA        18.3150   16.2950   11.3740 C.3    81  CYS81       0.1843
     19  C         19.4750   16.7720   10.4980 C.2    81  CYS81       0.2625
     20  O         20.6400   16.4460   10.7540 O.2    81  CYS81      -0.2714
     21  CB        18.5100   16.8500   12.7720 C.3    81  CYS81       0.0997
     22  SG        18.5840   18.6440   12.7450 S.3    81  CYS81      -0.0797
     23  N         19.1810   17.5780    9.5010 N.am   82  LYS82      -0.1963
     24  CA        20.2500   18.0130    8.6120 C.3    82  LYS82       0.1728
     25  C         21.0730   19.1600    9.2200 C.2    82  LYS82       0.2616
     26  O         22.2150   19.3420    8.8040 O.2    82  LYS82      -0.2715
     27  CB        19.7270   18.2880    7.2100 C.3    82  LYS82       0.0311
     28  CG        19.8080   16.9970    6.3920 C.3    82  LYS82       0.0038
     29  CD        19.1230   16.9910    5.1090 C.3    82  LYS82       0.0206
     30  CE        19.0480   15.5930    4.5090 C.3    82  LYS82       0.1093
     31  NZ        18.7240   15.6840    3.0770 N.3    82  LYS82      -0.1314
     32  N         20.5780   19.8820   10.2060 N.am   83  GLN83      -0.1963
     33  CA        21.3780   20.9810   10.7710 C.3    83  GLN83       0.1733
     34  C         22.2240   20.4670   11.9370 C.2    83  GLN83       0.2616
     35  O         21.7600   19.6690   12.7600 O.2    83  GLN83      -0.2715
     36  CB        20.4600   22.0640   11.3380 C.3    83  GLN83       0.0408
     37  CG        19.9990   23.0670   10.3160 C.3    83  GLN83       0.0908
     38  CD        19.3670   24.2780   10.9660 C.2    83  GLN83       0.2608
     39  OE1       18.5300   24.1380   11.8350 O.2    83  GLN83      -0.2717
     40  NE2       19.7350   25.4680   10.4980 N.am   83  GLN83      -0.0878
     41  N         23.4440   20.9790   12.0010 N.am   84  ILE84      -0.1963
     42  CA        24.4170   20.7390   13.0630 C.3    84  ILE84       0.1727
     43  C         23.8910   21.2570   14.4070 C.2    84  ILE84       0.2616
     44  O         23.4000   22.3760   14.4780 O.2    84  ILE84      -0.2715
     45  CB        25.7180   21.4610   12.6670 C.3    84  ILE84       0.0290
     46  CG1       26.4770   20.6290   11.6350 C.3    84  ILE84       0.0022
     47  CG2       26.5740   21.8010   13.8850 C.3    84  ILE84       0.0023
     48  CD1       27.2230   19.4580   12.2360 C.3    84  ILE84       0.0001
     49  N         23.9320   20.4600   15.4760 N.am   85  PHE85      -0.1974
     50  CA        23.6420   20.9860   16.8220 C.3    85  PHE85       0.1639
     51  C         24.9190   21.6320   17.3780 C.2    85  PHE85       0.2290
     52  O         25.9720   20.9690   17.5080 O.2    85  PHE85      -0.2864
     53  CB        23.1550   19.8970   17.7740 C.3    85  PHE85       0.0560
     54  CG        21.7610   19.3530   17.5510 C.ar   85  PHE85      -0.0200
     55  CD1       21.0080   19.7100   16.4490 C.ar   85  PHE85      -0.0042
     56  CD2       21.2010   18.5150   18.4870 C.ar   85  PHE85      -0.0042
     57  CE1       19.7150   19.2290   16.2930 C.ar   85  PHE85      -0.0003
     58  CE2       19.9130   18.0250   18.3290 C.ar   85  PHE85      -0.0003
     59  CZ        19.1730   18.3880   17.2330 C.ar   85  PHE85      -0.0000
     60  N         24.0990   21.0790   22.8000 N.3    90  THR90      -0.1218
     61  CA        24.3230   19.7240   23.3000 C.3    90  THR90       0.1862
     62  C         24.8520   19.7590   24.7400 C.2    90  THR90       0.2287
     63  O         24.6060   18.8230   25.4740 O.2    90  THR90      -0.2866
     64  CB        25.2510   18.9390   22.3790 C.3    90  THR90       0.1770
     65  OG1       26.4910   19.6360   22.2150 O.3    90  THR90      -0.2211
     66  CG2       24.5700   18.7030   21.0450 C.3    90  THR90       0.0375
     67  N         21.2250   11.3580   18.9640 N.3    97  ASN97      -0.1225
     68  CA        21.1870   11.3070   17.4950 C.3    97  ASN97       0.1785
     69  C         20.7910    9.9000   17.0380 C.2    97  ASN97       0.2597
     70  O         21.2220    8.8660   17.6390 O.2    97  ASN97      -0.2718
     71  CB        22.5390   11.7060   16.9200 C.3    97  ASN97       0.1169
     72  CG        22.6100   11.6720   15.4130 C.2    97  ASN97       0.2627
     73  OD1       23.5640   11.1240   14.8500 O.2    97  ASN97      -0.2716
     74  ND2       21.6470   12.2940   14.7670 N.am   97  ASN97      -0.0877
     75  N         19.9390    9.8610   16.0170 N.am   98  PHE98      -0.1962
     76  CA        19.5160    8.6060   15.3700 C.3    98  PHE98       0.1771
     77  C         20.1490    8.5490   13.9840 C.2    98  PHE98       0.2619
     78  O         19.7710    9.2860   13.0690 O.2    98  PHE98      -0.2715
     79  CB        17.9950    8.4930   15.3370 C.3    98  PHE98       0.0574
     80  CG        17.3420    8.4310   16.6850 C.ar   98  PHE98      -0.0200
     81  CD1       16.7180    7.2700   17.1070 C.ar   98  PHE98      -0.0042
     82  CD2       17.3260    9.5440   17.5170 C.ar   98  PHE98      -0.0042
     83  CE1       16.0770    7.2170   18.3350 C.ar   98  PHE98      -0.0003
     84  CE2       16.7160    9.4760   18.7540 C.ar   98  PHE98      -0.0003
     85  CZ        16.0750    8.3160   19.1480 C.ar   98  PHE98      -0.0000
     86  N         21.2410    7.7810   13.8810 N.am   99  HIS99      -0.1973
     87  CA        22.1520    7.8150   12.7580 C.3    99  HIS99       0.1656
     88  C         22.0150    6.5580   11.8900 C.2    99  HIS99       0.2291
     89  O         22.1430    5.4540   12.3930 O.2    99  HIS99      -0.2864
     90  CB        23.5840    7.9620   13.2720 C.3    99  HIS99       0.0771
     91  CG        24.6270    7.8950   12.2190 C.ar   99  HIS99       0.0820
     92  ND1       24.7340    8.8310   11.2120 N.ar   99  HIS99      -0.2267
     93  CD2       25.5670    6.9530   11.9860 C.ar   99  HIS99       0.1154
     94  CE1       25.7540    8.5220   10.4460 C.ar   99  HIS99       0.1986
     95  NE2       26.2910    7.3510   10.8940 N.ar   99  HIS99      -0.2212
     96  N         28.1490   11.2420    6.1310 N.3   109  TRP109     -0.1241
     97  CA        27.1540   11.3240    5.0390 C.3   109  TRP109      0.1605
     98  C         27.0060    9.9900    4.3080 C.2   109  TRP109      0.2264
     99  O         28.0160    9.3990    3.9520 O.2   109  TRP109     -0.2867
    100  CB        27.5210   12.4490    4.0630 C.3   109  TRP109      0.0550
    101  CG        27.1960   13.7560    4.7050 C.ar  109  TRP109      0.0003
    102  CD1       28.0220   14.5340    5.4660 C.ar  109  TRP109      0.0946
    103  CD2       25.8870   14.3440    4.7990 C.ar  109  TRP109      0.0152
    104  NE1       27.3250   15.6010    5.9790 N.ar  109  TRP109     -0.2442
    105  CE2       26.0140   15.5110    5.5860 C.ar  109  TRP109      0.0810
    106  CE3       24.6370   14.0270    4.2590 C.ar  109  TRP109      0.0012
    107  CZ2       24.9240   16.3390    5.8590 C.ar  109  TRP109      0.0191
    108  CZ3       23.5590   14.8420    4.5390 C.ar  109  TRP109      0.0001
    109  CH2       23.7000   15.9760    5.3350 C.ar  109  TRP109      0.0015
    110  N         22.9440    7.2900   19.4880 N.3   127  HIS127     -0.1241
    111  CA        24.0920    7.7050   20.3280 C.3   127  HIS127      0.1621
    112  C         23.8710    9.1060   20.9110 C.2   127  HIS127      0.2264
    113  O         23.0810    9.8940   20.4010 O.2   127  HIS127     -0.2867
    114  CB        25.4040    7.6250   19.5400 C.3   127  HIS127      0.0745
    115  CG        25.5090    8.6220   18.4400 C.ar  127  HIS127      0.0817
    116  ND1       25.9620    9.8990   18.6430 N.ar  127  HIS127     -0.2268
    117  CD2       25.2730    8.5120   17.1160 C.ar  127  HIS127      0.1154
    118  CE1       26.0010   10.5330   17.4900 C.ar  127  HIS127      0.1986
    119  NE2       25.5610    9.7220   16.5450 N.ar  127  HIS127     -0.2212
    120  N         24.9390   12.9590   21.8620 N.3   129  MET129     -0.1230
    121  CA        25.6250   13.9970   21.1060 C.3   129  MET129      0.1702
    122  C         26.4370   14.8720   22.0610 C.2   129  MET129      0.2592
    123  O         25.9220   15.4430   23.0570 O.2   129  MET129     -0.2718
    124  CB        24.6410   14.8480   20.2920 C.3   129  MET129      0.0401
    125  CG        23.7020   14.0010   19.4770 C.3   129  MET129      0.0596
    126  SD        22.3720   14.9390   18.6650 S.3   129  MET129     -0.1393
    127  CE        23.3250   15.9090   17.5060 C.3   129  MET129      0.0692
    128  N         27.7170   14.9340   21.7670 N.am  130  ASP130     -0.1960
    129  CA        28.6660   15.5510   22.6870 C.3   130  ASP130      0.1840
    130  C         29.6120   16.4450   21.8760 C.2   130  ASP130      0.2621
    131  O         30.0830   16.0700   20.7980 O.2   130  ASP130     -0.2715
    132  CB        29.3700   14.4730   23.5170 C.3   130  ASP130      0.1450
    133  CG        30.5310   14.9610   24.3820 C.2   130  ASP130      0.3671
    134  OD1       30.7460   16.1830   24.4790 O.co2 130  ASP130     -0.2456
    135  OD2       31.2270   14.1020   24.9500 O.co2 130  ASP130     -0.2456
    136  N         29.8350   17.6490   22.3940 N.am  131  ALA131     -0.1977
    137  CA        30.7310   18.6160   21.7600 C.3   131  ALA131      0.1597
    138  C         32.1830   18.2280   22.0700 C.2   131  ALA131      0.2287
    139  O         32.9600   17.9480   21.1620 O.2   131  ALA131     -0.2864
    140  CB        30.4060   20.0100   22.2450 C.3   131  ALA131      0.0319
    141  N         35.1180    8.7870    8.8630 N.3   188  TYR188     -0.1241
    142  CA        34.0910    9.7800    8.5540 C.3   188  TYR188      0.1605
    143  C         34.1240   10.1650    7.0750 C.2   188  TYR188      0.2264
    144  O         35.1820   10.3520    6.4790 O.2   188  TYR188     -0.2867
    145  CB        34.2670   10.9970    9.4590 C.3   188  TYR188      0.0534
    146  CG        33.2670   12.0860    9.2030 C.ar  188  TYR188     -0.0201
    147  CD1       33.4360   12.9460    8.1310 C.ar  188  TYR188     -0.0009
    148  CD2       32.1910   12.2770   10.0470 C.ar  188  TYR188     -0.0009
    149  CE1       32.5370   13.9630    7.8850 C.ar  188  TYR188      0.0417
    150  CE2       31.2960   13.3080    9.8270 C.ar  188  TYR188      0.0417
    151  CZ        31.4600   14.1280    8.7300 C.ar  188  TYR188      0.1957
    152  OH        30.5630   15.1270    8.4680 O.3   188  TYR188     -0.2866
@<TRIPOS>BOND
     1    31    30    1
     2    99    98    2
     3   100   101    1
     4   100    97    1
     5   106   108   ar
     6   106   103   ar
     7    98    97    1
     8    30    29    1
     9   108   109   ar
    10   101   103   ar
    11   101   102   ar
    12   103   105   ar
    13    97    96    1
    14    29    28    1
    15   109   107   ar
    16   102   104   ar
    17   105   107   ar
    18   105   104   ar
    19    28    27    1
    20   144   143    2
    21   143   142    1
    22    27    24    1
    23   149   147   ar
    24   149   151   ar
    25   147   146   ar
    26    13    15   ar
    27    13    12   ar
    28   152   151    1
    29   142   141    1
    30   142   145    1
    31    24    25    1
    32    24    23    1
    33    15    16   ar
    34   151   150   ar
    35    26    25    2
    36   146   145    1
    37   146   148   ar
    38    25    32   am
    39    10     9    2
    40    23    19   am
    41    12    11    1
    42    12    14   ar
    43    11     8    1
    44   150   148   ar
    45    16    14   ar
    46    32    33    1
    47    37    38    1
    48    37    36    1
    49     9     8    1
    50     9    17   am
    51    94    95   ar
    52    94    92   ar
    53    40    38   am
    54    19    20    2
    55    19    18    1
    56     8     7    1
    57    33    36    1
    58    33    34    1
    59    95    93   ar
    60    38    39    2
    61    92    91   ar
    62    18    17    1
    63    18    21    1
    64    46    48    1
    65    46    45    1
    66    88    89    2
    67    88    87    1
    68    34    41   am
    69    34    35    2
    70    93    91   ar
    71    41    42    1
    72    91    90    1
    73    45    42    1
    74    45    47    1
    75    22    21    1
    76    87    90    1
    77    87    86    1
    78    42    43    1
    79    78    77    2
    80    86    77   am
    81    77    76    1
    82    43    44    2
    83    43    49   am
    84     6     5    1
    85    74    72   am
    86    73    72    2
    87     3     4    2
    88     3     2    1
    89    79    76    1
    90    79    80    1
    91    76    75    1
    92    72    71    1
    93    49    50    1
    94     5     2    1
    95    75    69   am
    96     2     1    1
    97    57    55   ar
    98    57    59   ar
    99    55    54   ar
   100   119   117   ar
   101   119   118   ar
   102    80    81   ar
   103    80    82   ar
   104    50    51    1
   105    50    53    1
   106    71    68    1
   107    69    68    1
   108    69    70    2
   109    81    83   ar
   110   117   115   ar
   111    59    58   ar
   112    51    52    2
   113   118   116   ar
   114    68    67    1
   115   127   126    1
   116    82    84   ar
   117    54    53    1
   118    54    56   ar
   119    58    56   ar
   120    83    85   ar
   121   115   116   ar
   122   115   114    1
   123   126   125    1
   124    84    85   ar
   125   125   124    1
   126   110   111    1
   127   114   111    1
   128   124   121    1
   129   111   112    1
   130   113   112    2
   131   131   130    2
   132    66    64    1
   133   121   120    1
   134   121   122    1
   135   139   138    2
   136   137   138    1
   137   137   140    1
   138   137   136    1
   139   128   122   am
   140   128   129    1
   141   130   136   am
   142   130   129    1
   143   122   123    2
   144    65    64    1
   145    64    61    1
   146   129   132    1
   147    60    61    1
   148    61    62    1
   149   132   133    1
   150   133   134   ar
   151   133   135   ar
   152    62    63    2
