@<TRIPOS>MOLECULE
tmp/6nbpA00.pdb
 185 184 0 0 0
SMALL
GASTEIGER

@<TRIPOS>ATOM
      1  N         14.4820   15.7720    9.5370 N.3    13  ASP13      -0.1225
      2  CA        14.2000   16.0470    8.1570 C.3    13  ASP13       0.1805
      3  C         13.8280   14.7520    7.4250 C.2    13  ASP13       0.2597
      4  O         13.9020   14.7090    6.1670 O.2    13  ASP13      -0.2718
      5  CB        15.3750   16.7860    7.5200 C.3    13  ASP13       0.1424
      6  CG        15.5400   18.1630    8.1400 C.2    13  ASP13       0.3668
      7  OD1       14.5830   18.9580    7.9700 O.co2  13  ASP13      -0.2456
      8  OD2       16.5800   18.4180    8.7970 O.co2  13  ASP13      -0.2456
      9  N         13.3390   13.7690    8.1760 N.am   14  ASN14      -0.1974
     10  CA        12.8940   12.5130    7.5860 C.3    14  ASN14       0.1688
     11  C         11.4880   12.1890    8.0700 C.2    14  ASN14       0.2292
     12  O         11.2930   11.8010    9.2130 O.2    14  ASN14      -0.2864
     13  CB        13.8740   11.3950    7.9210 C.3    14  ASN14       0.1181
     14  CG        13.5520   10.0930    7.2170 C.2    14  ASN14       0.2629
     15  OD1       12.6610    9.3530    7.6560 O.2    14  ASN14      -0.2716
     16  ND2       14.2630    9.8230    6.1240 N.am   14  ASN14      -0.0877
     17  N         15.9430   21.8630    1.5130 N.3    44  ASN44      -0.1225
     18  CA        16.3140   21.1060    0.2790 C.3    44  ASN44       0.1785
     19  C         16.0370   19.6010    0.4550 C.2    44  ASN44       0.2597
     20  O         16.4160   18.8400   -0.4650 O.2    44  ASN44      -0.2718
     21  CB        17.7450   21.4180   -0.1850 C.3    44  ASN44       0.1169
     22  CG        18.8240   20.9670    0.7790 C.2    44  ASN44       0.2627
     23  OD1       19.9820   21.3890    0.6460 O.2    44  ASN44      -0.2716
     24  ND2       18.4690   20.1060    1.7320 N.am   44  ASN44      -0.0877
     25  N         15.4150   19.1630    1.5840 N.am   45  THR45      -0.1953
     26  CA        14.9580   17.7570    1.7140 C.3    45  THR45       0.1897
     27  C         13.5060   17.7310    1.2420 C.2    45  THR45       0.2313
     28  O         13.2470   18.0390    0.0580 O.2    45  THR45      -0.2863
     29  CB        15.2450   17.1770    3.1160 C.3    45  THR45       0.1794
     30  OG1       16.6150   17.4220    3.4370 O.3    45  THR45      -0.2208
     31  CG2       15.0080   15.6820    3.2120 C.3    45  THR45       0.0378
     32  N         17.6980   12.2880   11.9910 N.3    80  HIS80      -0.1226
     33  CA        18.1210   12.6120   10.6540 C.3    80  HIS80       0.1752
     34  C         17.8740   14.1110   10.4330 C.2    80  HIS80       0.2596
     35  O         17.2630   14.5440    9.4650 O.2    80  HIS80      -0.2718
     36  CB        17.3750   11.7730    9.5930 C.3    80  HIS80       0.0759
     37  CG        17.6630   10.3080    9.5470 C.ar   80  HIS80       0.0818
     38  ND1       17.6460    9.6070    8.3580 N.ar   80  HIS80      -0.2268
     39  CD2       17.9020    9.4120   10.5180 C.ar   80  HIS80       0.1154
     40  CE1       17.8530    8.3280    8.6320 C.ar   80  HIS80       0.1986
     41  NE2       18.0180    8.1910    9.9400 N.ar   80  HIS80      -0.2212
     42  N         18.3220   14.8740   11.4220 N.am   81  CYS81      -0.1956
     43  CA        18.3150   16.2950   11.3740 C.3    81  CYS81       0.1843
     44  C         19.4750   16.7720   10.4980 C.2    81  CYS81       0.2625
     45  O         20.6400   16.4460   10.7540 O.2    81  CYS81      -0.2714
     46  CB        18.5100   16.8500   12.7720 C.3    81  CYS81       0.0997
     47  SG        18.5840   18.6440   12.7450 S.3    81  CYS81      -0.0797
     48  N         19.1810   17.5780    9.5010 N.am   82  LYS82      -0.1977
     49  CA        20.2500   18.0130    8.6120 C.3    82  LYS82       0.1596
     50  C         21.0730   19.1600    9.2200 C.2    82  LYS82       0.2287
     51  O         22.2150   19.3420    8.8040 O.2    82  LYS82      -0.2864
     52  CB        19.7270   18.2880    7.2100 C.3    82  LYS82       0.0298
     53  CG        19.8080   16.9970    6.3920 C.3    82  LYS82       0.0038
     54  CD        19.1230   16.9910    5.1090 C.3    82  LYS82       0.0206
     55  CE        19.0480   15.5930    4.5090 C.3    82  LYS82       0.1093
     56  NZ        18.7240   15.6840    3.0770 N.3    82  LYS82      -0.1314
     57  N         21.2250   11.3580   18.9640 N.3    97  ASN97      -0.1240
     58  CA        21.1870   11.3070   17.4950 C.3    97  ASN97       0.1653
     59  C         20.7910    9.9000   17.0380 C.2    97  ASN97       0.2266
     60  O         21.2220    8.8660   17.6390 O.2    97  ASN97      -0.2867
     61  CB        22.5390   11.7060   16.9200 C.3    97  ASN97       0.1155
     62  CG        22.6100   11.6720   15.4130 C.2    97  ASN97       0.2627
     63  OD1       23.5640   11.1240   14.8500 O.2    97  ASN97      -0.2716
     64  ND2       21.6470   12.2940   14.7670 N.am   97  ASN97      -0.0877
     65  N         21.2410    7.7810   13.8810 N.3    99  HIS99      -0.1227
     66  CA        22.1520    7.8150   12.7580 C.3    99  HIS99       0.1737
     67  C         22.0150    6.5580   11.8900 C.2    99  HIS99       0.2438
     68  O         22.1430    5.4540   12.3930 O.2    99  HIS99      -0.2733
     69  CB        23.5840    7.9620   13.2720 C.3    99  HIS99       0.0758
     70  CG        24.6270    7.8950   12.2190 C.ar   99  HIS99       0.0818
     71  ND1       24.7340    8.8310   11.2120 N.ar   99  HIS99      -0.2268
     72  CD2       25.5670    6.9530   11.9860 C.ar   99  HIS99       0.1154
     73  CE1       25.7540    8.5220   10.4460 C.ar   99  HIS99       0.1986
     74  NE2       26.2910    7.3510   10.8940 N.ar   99  HIS99      -0.2212
     75  N         21.8320    6.7330   10.5770 N.am  100  PRO100     -0.2729
     76  CA        21.6730    5.6070    9.6790 C.3   100  PRO100      0.1401
     77  C         23.0380    5.1010    9.1980 C.2   100  PRO100      0.2269
     78  O         23.2660    4.9200    8.0000 O.2   100  PRO100     -0.2865
     79  CB        20.7960    6.1490    8.5520 C.3   100  PRO100      0.0296
     80  CG        21.2980    7.5640    8.3920 C.3   100  PRO100      0.0237
     81  CD        21.6420    7.9870    9.8120 C.3   100  PRO100      0.0939
     82  N         29.1450   10.1850    9.2980 N.3   108  GLY108     -0.1210
     83  CA        28.9090   11.3410    8.4450 C.3   108  GLY108      0.1956
     84  C         27.8230   11.0520    7.4020 C.2   108  GLY108      0.2612
     85  O         26.7670   10.5480    7.7620 O.2   108  GLY108     -0.2717
     86  N         28.1490   11.2420    6.1310 N.am  109  TRP109     -0.1962
     87  CA        27.1540   11.3240    5.0390 C.3   109  TRP109      0.1771
     88  C         27.0060    9.9900    4.3080 C.2   109  TRP109      0.2620
     89  O         28.0160    9.3990    3.9520 O.2   109  TRP109     -0.2715
     90  CB        27.5210   12.4490    4.0630 C.3   109  TRP109      0.0590
     91  CG        27.1960   13.7560    4.7050 C.ar  109  TRP109      0.0006
     92  CD1       28.0220   14.5340    5.4660 C.ar  109  TRP109      0.0946
     93  CD2       25.8870   14.3440    4.7990 C.ar  109  TRP109      0.0152
     94  NE1       27.3250   15.6010    5.9790 N.ar  109  TRP109     -0.2442
     95  CE2       26.0140   15.5110    5.5860 C.ar  109  TRP109      0.0810
     96  CE3       24.6370   14.0270    4.2590 C.ar  109  TRP109      0.0012
     97  CZ2       24.9240   16.3390    5.8590 C.ar  109  TRP109      0.0191
     98  CZ3       23.5590   14.8420    4.5390 C.ar  109  TRP109      0.0001
     99  CH2       23.7000   15.9760    5.3350 C.ar  109  TRP109      0.0015
    100  N         25.7490    9.5950    4.1120 N.am  110  TYR110     -0.1960
    101  CA        25.3540    8.3970    3.3230 C.3   110  TYR110      0.1756
    102  C         26.2240    7.1720    3.6470 C.2   110  TYR110      0.2461
    103  O         26.8410    6.5650    2.7450 O.2   110  TYR110     -0.2730
    104  CB        25.4600    8.7210    1.8410 C.3   110  TYR110      0.0574
    105  CG        24.7500    9.9760    1.4010 C.ar  110  TYR110     -0.0198
    106  CD1       23.6890   10.5270    2.1100 C.ar  110  TYR110     -0.0009
    107  CD2       25.1520   10.5980    0.2350 C.ar  110  TYR110     -0.0009
    108  CE1       23.0620   11.6810    1.6570 C.ar  110  TYR110      0.0417
    109  CE2       24.5340   11.7380   -0.2350 C.ar  110  TYR110      0.0417
    110  CZ        23.5020   12.2910    0.4870 C.ar  110  TYR110      0.1957
    111  OH        22.9440   13.4260   -0.0080 O.3   110  TYR110     -0.2866
    112  N         26.1290    6.7000    4.8730 N.am  111  PRO111     -0.2716
    113  CA        27.0270    5.6490    5.3140 C.3   111  PRO111      0.1536
    114  C         27.0070    4.4050    4.4060 C.2   111  PRO111      0.2598
    115  O         28.0760    3.8250    4.1270 O.2   111  PRO111     -0.2715
    116  CB        26.5130    5.3360    6.7340 C.3   111  PRO111      0.0310
    117  CG        26.0050    6.6460    7.2170 C.3   111  PRO111      0.0237
    118  CD        25.3680    7.2670    5.9920 C.3   111  PRO111      0.0939
    119  N         25.8170    3.9870    3.9650 N.am  112  GLN112     -0.1978
    120  CA        25.6860    2.7370    3.1810 C.3   112  GLN112      0.1601
    121  C         26.3910    2.8870    1.8380 C.2   112  GLN112      0.2287
    122  O         26.9050    1.8860    1.2900 O.2   112  GLN112     -0.2864
    123  CB        24.2370    2.2700    3.0300 C.3   112  GLN112      0.0394
    124  CG        23.4220    2.9800    1.9630 C.3   112  GLN112      0.0908
    125  CD        23.0910    4.4060    2.3540 C.2   112  GLN112      0.2608
    126  OE1       23.2100    4.7530    3.5300 O.2   112  GLN112     -0.2717
    127  NE2       22.7180    5.2340    1.3620 N.am  112  GLN112     -0.0878
    128  N         23.0090    1.4000   -3.1220 N.3   150  SER150     -0.1217
    129  CA        22.7370    2.3230   -2.0430 C.3   150  SER150      0.1889
    130  C         21.2680    2.2410   -1.6020 C.2   150  SER150      0.2288
    131  O         21.0300    2.1980   -0.3980 O.2   150  SER150     -0.2866
    132  CB        23.1680    3.7280   -2.4260 C.3   150  SER150      0.2089
    133  OG        22.6660    4.6920   -1.5180 O.3   150  SER150     -0.2183
    134  N         19.9680    1.0020    2.0480 N.3   154  TYR154     -0.1241
    135  CA        19.3110    2.0520    2.7900 C.3   154  TYR154      0.1605
    136  C         17.9700    1.5850    3.3360 C.2   154  TYR154      0.2264
    137  O         17.6150    1.8660    4.4840 O.2   154  TYR154     -0.2867
    138  CB        19.1360    3.2880    1.9260 C.3   154  TYR154      0.0534
    139  CG        18.5600    4.4770    2.6630 C.ar  154  TYR154     -0.0201
    140  CD1       19.3230    5.1590    3.6040 C.ar  154  TYR154     -0.0009
    141  CD2       17.3050    4.9740    2.3680 C.ar  154  TYR154     -0.0009
    142  CE1       18.8300    6.2610    4.2710 C.ar  154  TYR154      0.0417
    143  CE2       16.7970    6.0790    3.0350 C.ar  154  TYR154      0.0417
    144  CZ        17.5510    6.7060    4.0090 C.ar  154  TYR154      0.1957
    145  OH        17.0620    7.8100    4.6420 O.3   154  TYR154     -0.2866
    146  N         31.0860   12.2210   -1.2690 N.3   194  PHE194     -0.1241
    147  CA        30.0830   11.6300   -2.1230 C.3   194  PHE194      0.1605
    148  C         30.0760   12.2930   -3.5040 C.2   194  PHE194      0.2264
    149  O         30.0610   11.6260   -4.5320 O.2   194  PHE194     -0.2867
    150  CB        28.7180   11.7650   -1.4760 C.3   194  PHE194      0.0534
    151  CG        27.6740   11.0170   -2.2430 C.ar  194  PHE194     -0.0203
    152  CD1       27.6400    9.6340   -2.2060 C.ar  194  PHE194     -0.0042
    153  CD2       26.7480   11.6830   -3.0200 C.ar  194  PHE194     -0.0042
    154  CE1       26.6800    8.9320   -2.9270 C.ar  194  PHE194     -0.0003
    155  CE2       25.7850   10.9830   -3.7320 C.ar  194  PHE194     -0.0003
    156  CZ        25.7710    9.6030   -3.7040 C.ar  194  PHE194     -0.0000
    157  N         20.7490    4.8650   -6.5050 N.3   220  HIS220     -0.1241
    158  CA        19.8180    4.9210   -5.4400 C.3   220  HIS220      0.1621
    159  C         18.4430    5.1650   -6.0560 C.2   220  HIS220      0.2264
    160  O         18.0050    6.2810   -6.1490 O.2   220  HIS220     -0.2867
    161  CB        20.2610    5.9410   -4.3890 C.3   220  HIS220      0.0745
    162  CG        19.4700    5.9420   -3.1170 C.ar  220  HIS220      0.0817
    163  ND1       20.0040    5.5120   -1.9130 N.ar  220  HIS220     -0.2268
    164  CD2       18.1800    6.2440   -2.8560 C.ar  220  HIS220      0.1154
    165  CE1       19.0760    5.5860   -0.9720 C.ar  220  HIS220      0.1986
    166  NE2       17.9590    6.0200   -1.5130 N.ar  220  HIS220     -0.2212
    167  N         17.5090    8.3640   -8.4840 N.3   223  PHE223     -0.1241
    168  CA        18.3040    9.5670   -8.2810 C.3   223  PHE223      0.1605
    169  C         19.3270    9.7200   -9.4170 C.2   223  PHE223      0.2264
    170  O         19.9090    8.7240   -9.8610 O.2   223  PHE223     -0.2867
    171  CB        19.0910    9.5240   -6.9680 C.3   223  PHE223      0.0534
    172  CG        18.3840   10.0510   -5.7570 C.ar  223  PHE223     -0.0203
    173  CD1       18.0060    9.1980   -4.7280 C.ar  223  PHE223     -0.0042
    174  CD2       18.1990   11.4120   -5.5890 C.ar  223  PHE223     -0.0042
    175  CE1       17.3700    9.6950   -3.5990 C.ar  223  PHE223     -0.0003
    176  CE2       17.5390   11.8990   -4.4710 C.ar  223  PHE223     -0.0003
    177  CZ        17.1360   11.0420   -3.4790 C.ar  223  PHE223     -0.0000
    178  N         22.6760   10.7480   -9.7300 N.3   225  ASN225     -0.1240
    179  CA        23.8610   10.9740   -8.8990 C.3   225  ASN225      0.1653
    180  C         25.1140   10.9790   -9.7840 C.2   225  ASN225      0.2266
    181  O         25.6980   12.0350  -10.0300 O.2   225  ASN225     -0.2867
    182  CB        24.0130    9.9390   -7.7770 C.3   225  ASN225      0.1155
    183  CG        22.9630    9.9690   -6.6920 C.2   225  ASN225      0.2627
    184  OD1       22.4710   11.0340   -6.3130 O.2   225  ASN225     -0.2716
    185  ND2       22.5780    8.7910   -6.1940 N.am  225  ASN225     -0.0877
@<TRIPOS>BOND
     1   181   180    2
     2   170   169    2
     3   180   179    1
     4   178   179    1
     5   169   168    1
     6   179   182    1
     7   167   168    1
     8   168   171    1
     9   182   183    1
    10   171   172    1
    11   183   184    2
    12   183   185   am
    13   157   158    1
    14   160   159    2
    15   159   158    1
    16   172   174   ar
    17   172   173   ar
    18   174   176   ar
    19   158   161    1
    20   173   175   ar
    21   149   148    2
    22   176   177   ar
    23   161   162    1
    24   155   156   ar
    25   155   153   ar
    26   156   154   ar
    27   175   177   ar
    28   148   147    1
    29   128   129    1
    30   162   164   ar
    31   162   163   ar
    32   153   151   ar
    33   154   152   ar
    34   164   166   ar
    35   132   129    1
    36   132   133    1
    37   151   152   ar
    38   151   150    1
    39   147   150    1
    40   147   146    1
    41   129   130    1
    42   163   165   ar
    43   130   131    2
    44   166   165   ar
    45    20    19    2
    46   109   107   ar
    47   109   110   ar
    48    21    18    1
    49    21    22    1
    50   111   110    1
    51    28    27    2
    52   107   105   ar
    53    18    19    1
    54    18    17    1
    55    19    25   am
    56   110   108   ar
    57    23    22    2
    58    22    24   am
    59    27    26    1
    60   122   121    2
    61   127   125   am
    62   105   104    1
    63   105   106   ar
    64    25    26    1
    65   108   106   ar
    66    26    29    1
    67   121   120    1
    68   104   101    1
    69   138   139    1
    70   138   135    1
    71   124   125    1
    72   124   123    1
    73   134   135    1
    74   125   126    2
    75   141   139   ar
    76   141   143   ar
    77   139   140   ar
    78   103   102    2
    79   135   136    1
    80   123   120    1
    81   143   144   ar
    82    56    55    1
    83    29    31    1
    84    29    30    1
    85   120   119    1
    86   101   102    1
    87   101   100    1
    88   136   137    2
    89   140   142   ar
    90   102   112   am
    91    89    88    2
    92   119   114   am
    93   144   142   ar
    94   144   145    1
    95    90    91    1
    96    90    87    1
    97   100    88   am
    98   115   114    2
    99    96    98   ar
   100    96    93   ar
   101    88    87    1
   102   114   113    1
   103    55    54    1
   104    98    99   ar
   105    91    93   ar
   106    91    92   ar
   107    93    95   ar
   108   112   113    1
   109   112   118    1
   110    87    86    1
   111    54    53    1
   112   113   116    1
   113    99    97   ar
   114    92    94   ar
   115    95    97   ar
   116    95    94   ar
   117   118   117    1
   118    16    14   am
   119    86    84   am
   120     4     3    2
   121    53    52    1
   122   116   117    1
   123    52    49    1
   124    14    15    2
   125    14    13    1
   126    84    85    2
   127    84    83    1
   128     3     2    1
   129     3     9   am
   130     5     6    1
   131     5     2    1
   132    10    13    1
   133    10    11    1
   134    10     9    1
   135     7     6   ar
   136    78    77    2
   137    11    12    2
   138     6     8   ar
   139     2     1    1
   140    38    40   ar
   141    38    37   ar
   142    80    79    1
   143    80    81    1
   144    83    82    1
   145    79    76    1
   146    49    50    1
   147    49    48    1
   148    40    41   ar
   149    51    50    2
   150    77    76    1
   151    35    34    2
   152    48    44   am
   153    37    36    1
   154    37    39   ar
   155    36    33    1
   156    76    75    1
   157    81    75    1
   158    41    39   ar
   159    34    33    1
   160    34    42   am
   161    73    74   ar
   162    73    71   ar
   163    44    45    2
   164    44    43    1
   165    75    67   am
   166    33    32    1
   167    74    72   ar
   168    71    70   ar
   169    43    42    1
   170    43    46    1
   171    67    68    2
   172    67    66    1
   173    72    70   ar
   174    70    69    1
   175    47    46    1
   176    66    69    1
   177    66    65    1
   178    64    62   am
   179    63    62    2
   180    62    61    1
   181    61    58    1
   182    59    58    1
   183    59    60    2
   184    58    57    1
