@<TRIPOS>MOLECULE
tmp/6ncgA00.pdb
 139 131 0 0 0
SMALL
GASTEIGER

@<TRIPOS>ATOM
      1  N         20.3450    9.8600    2.3360 N.3    22  ILE22      -0.1231
      2  CA        20.9850    9.2520    1.1580 C.3    22  ILE22       0.1692
      3  C         20.3440    9.7160   -0.1600 C.2    22  ILE22       0.2593
      4  O         20.1610    8.9290   -1.0860 O.2    22  ILE22      -0.2718
      5  CB        21.0050    7.7110    1.2700 C.3    22  ILE22       0.0266
      6  CG1       19.5900    7.1480    1.4630 C.3    22  ILE22       0.0019
      7  CG2       21.8900    7.2960    2.4350 C.3    22  ILE22       0.0020
      8  CD1       19.5220    5.6360    1.5410 C.3    22  ILE22       0.0001
      9  N         20.0420   11.0120   -0.2450 N.am   23  GLY23      -0.1942
     10  CA        19.3600   11.5860   -1.4090 C.3    23  GLY23       0.2014
     11  C         17.8520   11.6260   -1.2260 C.2    23  GLY23       0.2639
     12  O         17.3490   11.4190   -0.1190 O.2    23  GLY23      -0.2714
     13  N         17.1340   11.9100   -2.3150 N.am   24  SER24      -0.1949
     14  CA        15.6660   11.9760   -2.2990 C.3    24  SER24       0.1924
     15  C         15.0900   11.4360   -3.6070 C.2    24  SER24       0.2314
     16  O         15.7410   11.5090   -4.6480 O.2    24  SER24      -0.2863
     17  CB        15.1940   13.4130   -2.0830 C.3    24  SER24       0.2116
     18  OG        15.0500   14.0750   -3.3220 O.3    24  SER24      -0.2180
     19  N         14.9730   10.4230    1.6200 N.3    28  ILE28      -0.1245
     20  CA        15.3630    9.0390    1.9230 C.3    28  ILE28       0.1561
     21  C         16.4970    8.9970    2.9420 C.2    28  ILE28       0.2260
     22  O         17.5850    9.5270    2.6820 O.2    28  ILE28      -0.2867
     23  CB        15.8490    8.2820    0.6640 C.3    28  ILE28       0.0252
     24  CG1       14.9630    8.5690   -0.5480 C.3    28  ILE28       0.0019
     25  CG2       15.8960    6.7890    0.9190 C.3    28  ILE28       0.0019
     26  CD1       13.4900    8.3150   -0.3280 C.3    28  ILE28       0.0001
     27  N         15.4390    1.6760    5.5460 N.3    43  VAL43      -0.1245
     28  CA        15.4400    2.9740    4.9220 C.3    43  VAL43       0.1561
     29  C         14.1430    3.6590    5.2690 C.2    43  VAL43       0.2260
     30  O         13.1180    3.0030    5.4290 O.2    43  VAL43      -0.2867
     31  CB        15.4870    2.8310    3.3870 C.3    43  VAL43       0.0252
     32  CG1       15.7850    4.1650    2.7250 C.3    43  VAL43       0.0019
     33  CG2       16.5250    1.7920    2.9770 C.3    43  VAL43       0.0019
     34  N         11.4660    6.7770    4.0380 N.3    45  LYS45      -0.1245
     35  CA        11.0190    7.7910    3.1230 C.3    45  LYS45       0.1561
     36  C         10.1330    8.7350    3.9280 C.2    45  LYS45       0.2260
     37  O          9.2140    8.3030    4.6190 O.2    45  LYS45      -0.2867
     38  CB        10.2630    7.1600    1.9570 C.3    45  LYS45       0.0271
     39  CG         9.7130    8.1920    0.9670 C.3    45  LYS45       0.0035
     40  CD         8.9440    7.4060   -0.1110 C.3    45  LYS45       0.0206
     41  CE         9.0350    8.2130   -1.4250 C.3    45  LYS45       0.1093
     42  NZ         7.8840    9.1680   -1.4710 N.3    45  LYS45      -0.1314
     43  N          1.6780    6.1380   -3.0630 N.3    57  GLU57      -0.1245
     44  CA         2.7230    5.1500   -2.8600 C.3    57  GLU57       0.1567
     45  C          2.5780    4.4630   -1.5140 C.2    57  GLU57       0.2260
     46  O          2.7570    3.2570   -1.4000 O.2    57  GLU57      -0.2867
     47  CB         4.1010    5.8020   -2.9790 C.3    57  GLU57       0.0388
     48  CG         5.2610    4.8400   -2.7940 C.3    57  GLU57       0.1160
     49  CD         6.5930    5.4470   -3.1740 C.2    57  GLU57       0.3649
     50  OE1        6.6890    6.6860   -3.2160 O.co2  57  GLU57      -0.2457
     51  OE2        7.5430    4.6820   -3.4290 O.co2  57  GLU57      -0.2457
     52  N          2.0610    0.2230   -0.6590 N.3    61  TYR61      -0.1241
     53  CA         2.9150   -0.5890    0.1780 C.3    61  TYR61       0.1605
     54  C          2.1390   -1.2160    1.3090 C.2    61  TYR61       0.2264
     55  O          2.2910   -2.3930    1.5960 O.2    61  TYR61      -0.2867
     56  CB         4.0530    0.2450    0.7450 C.3    61  TYR61       0.0534
     57  CG         5.2320    0.4190   -0.1780 C.ar   61  TYR61      -0.0201
     58  CD1        6.0490   -0.6490   -0.5010 C.ar   61  TYR61      -0.0009
     59  CD2        5.5420    1.6570   -0.7010 C.ar   61  TYR61      -0.0009
     60  CE1        7.1340   -0.4890   -1.3340 C.ar   61  TYR61       0.0417
     61  CE2        6.6220    1.8280   -1.5330 C.ar   61  TYR61       0.0417
     62  CZ         7.4150    0.7530   -1.8440 C.ar   61  TYR61       0.1957
     63  OH         8.4910    0.9330   -2.6720 O.3    61  TYR61      -0.2866
     64  N         10.2780   -4.5520   -2.5790 N.3    85  PRO85      -0.2116
     65  CA        10.8980   -4.1240   -1.3320 C.3    85  PRO85       0.1372
     66  C          9.9850   -4.4330   -0.1480 C.2    85  PRO85       0.2244
     67  O          8.8020   -4.0780   -0.1890 O.2    85  PRO85      -0.2868
     68  CB        11.0210   -2.6020   -1.4890 C.3    85  PRO85       0.0268
     69  CG        10.8050   -2.3230   -2.9200 C.3    85  PRO85       0.0207
     70  CD         9.9170   -3.4050   -3.4190 C.3    85  PRO85       0.0892
     71  N         11.1140    0.8560    4.9470 N.3   105  MET105     -0.1230
     72  CA        11.2000   -0.0590    3.8230 C.3   105  MET105      0.1702
     73  C         12.5160   -0.8010    3.9420 C.2   105  MET105      0.2592
     74  O         13.4470   -0.3020    4.5850 O.2   105  MET105     -0.2718
     75  CB        11.1390    0.7820    2.5430 C.3   105  MET105      0.0401
     76  CG        11.1330    0.0280    1.2240 C.3   105  MET105      0.0596
     77  SD        10.6000    1.0720   -0.1600 S.3   105  MET105     -0.1393
     78  CE        11.4320    2.6150    0.2170 C.3   105  MET105      0.0692
     79  N         12.5760   -1.9950    3.3510 N.am  106  GLU106     -0.1966
     80  CA        13.8260   -2.7920    3.2260 C.3   106  GLU106      0.1733
     81  C         14.9230   -1.9800    2.5350 C.2   106  GLU106      0.2616
     82  O         14.6480   -1.2350    1.5830 O.2   106  GLU106     -0.2715
     83  CB        13.5410   -4.0730    2.4180 C.3   106  GLU106      0.0429
     84  CG        14.6600   -5.1080    2.3030 C.3   106  GLU106      0.1163
     85  CD        14.2250   -6.3910    1.5550 C.2   106  GLU106      0.3649
     86  OE1       13.1370   -6.4160    0.9470 O.co2 106  GLU106     -0.2457
     87  OE2       14.9620   -7.4030    1.5630 O.co2 106  GLU106     -0.2457
     88  N         16.1590   -2.1030    3.0110 N.am  107  ARG107     -0.1963
     89  CA        17.2810   -1.4430    2.3310 C.3   107  ARG107      0.1729
     90  C         17.6620   -2.1920    1.0570 C.2   107  ARG107      0.2616
     91  O         17.6540   -3.4350    1.0110 O.2   107  ARG107     -0.2715
     92  CB        18.5140   -1.2970    3.2230 C.3   107  ARG107      0.0348
     93  CG        19.5770   -0.3940    2.6170 C.3   107  ARG107      0.0492
     94  CD        20.8910   -0.4850    3.3590 C.3   107  ARG107      0.2205
     95  NE        21.7950    0.5870    2.9660 N.pl3 107  ARG107     -0.0865
     96  CZ        22.9870    0.8190    3.5050 C.cat 107  ARG107      0.5346
     97  NH1       23.4650    0.0480    4.4720 N.pl3 107  ARG107      0.1354
     98  NH2       23.7130    1.8330    3.0640 N.pl3 107  ARG107      0.1354
     99  N         17.9890   -1.4100    0.0300 N.am  108  LEU108     -0.1963
    100  CA        18.3420   -1.9410   -1.2780 C.3   108  LEU108      0.1728
    101  C         19.6890   -1.4150   -1.7420 C.2   108  LEU108      0.2617
    102  O         20.2080   -0.4170   -1.2380 O.2   108  LEU108     -0.2715
    103  CB        17.2620   -1.5990   -2.3220 C.3   108  LEU108      0.0311
    104  CG        15.8730   -2.1800   -2.0760 C.3   108  LEU108      0.0022
    105  CD1       14.8870   -1.6460   -3.0870 C.3   108  LEU108      0.0001
    106  CD2       15.8990   -3.6910   -2.1060 C.3   108  LEU108      0.0001
    107  N         20.2330   -2.1090   -2.7280 N.am  109  GLY109     -0.1940
    108  CA        21.4990   -1.7530   -3.3140 C.3   109  GLY109      0.2014
    109  C         21.3740   -0.7940   -4.4690 C.2   109  GLY109      0.2638
    110  O         20.5100    0.0840   -4.4960 O.2   109  GLY109     -0.2714
    111  N         22.2670   -0.9800   -5.4300 N.am  110  ILE110     -0.1977
    112  CA        22.4130   -0.0650   -6.5540 C.3   110  ILE110      0.1596
    113  C         21.3440   -0.3180   -7.6260 C.2   110  ILE110      0.2287
    114  O         20.8670   -1.4540   -7.7970 O.2   110  ILE110     -0.2864
    115  CB        23.8410   -0.1790   -7.1350 C.3   110  ILE110      0.0276
    116  CG1       24.1670    1.0380   -8.0150 C.3   110  ILE110      0.0022
    117  CG2       24.0420   -1.5070   -7.8670 C.3   110  ILE110      0.0022
    118  CD1       25.6280    1.1400   -8.4150 C.3   110  ILE110      0.0001
    119  N         16.3520   -2.1680   -8.6490 N.3   155  LEU155     -0.1245
    120  CA        17.4760   -2.1020   -7.7230 C.3   155  LEU155      0.1561
    121  C         17.8610   -3.5000   -7.2850 C.2   155  LEU155      0.2260
    122  O         17.0070   -4.3590   -7.1440 O.2   155  LEU155     -0.2867
    123  CB        17.1260   -1.2370   -6.5090 C.3   155  LEU155      0.0270
    124  CG        17.3320    0.2780   -6.6930 C.3   155  LEU155      0.0019
    125  CD1       16.3680    0.8670   -7.7070 C.3   155  LEU155      0.0001
    126  CD2       17.1970    1.0220   -5.3700 C.3   155  LEU155      0.0001
    127  N         11.1990   -0.9130   -7.9460 N.3   167  ALA167     -0.1231
    128  CA        11.0470    0.1430   -6.9460 C.3   167  ALA167      0.1694
    129  C         10.2380    1.3030   -7.4810 C.2   167  ALA167      0.2592
    130  O          9.7880    1.2860   -8.6090 O.2   167  ALA167     -0.2718
    131  CB        12.4140    0.6200   -6.4700 C.3   167  ALA167      0.0304
    132  N         10.0340    2.2870   -6.6200 N.am  168  ASP168     -0.1974
    133  CA         9.3640    3.5450   -6.9300 C.3   168  ASP168      0.1709
    134  C          7.9410    3.5880   -7.4070 C.2   168  ASP168      0.2293
    135  O          7.6570    4.1050   -8.4730 O.2   168  ASP168     -0.2864
    136  CB        10.1770    4.3860   -7.8930 C.3   168  ASP168      0.1436
    137  CG         9.7060    5.8200   -7.9390 C.2   168  ASP168      0.3671
    138  OD1        8.5740    6.1130   -7.4640 O.co2 168  ASP168     -0.2456
    139  OD2       10.4810    6.6570   -8.4670 O.co2 168  ASP168     -0.2456
@<TRIPOS>BOND
     1   119   120    1
     2   130   129    2
     3   135   134    2
     4   139   137   ar
     5   118   116    1
     6   116   115    1
     7   127   128    1
     8   137   136    1
     9   137   138   ar
    10   136   133    1
    11   117   115    1
    12   114   113    2
    13   120   121    1
    14   120   123    1
    15   125   124    1
    16   113   112    1
    17   129   128    1
    18   129   132   am
    19   134   133    1
    20   121   122    2
    21   115   112    1
    22   128   131    1
    23   133   132    1
    24   124   123    1
    25   124   126    1
    26   112   111    1
    27   111   109   am
    28    16    15    2
    29   110   109    2
    30   109   108    1
    31    15    14    1
    32    51    49   ar
    33    70    69    1
    34    70    64    1
    35    18    17    1
    36   108   107    1
    37    50    49   ar
    38    49    48    1
    39   105   104    1
    40    43    44    1
    41    47    44    1
    42    47    48    1
    43    69    68    1
    44    44    45    1
    45   107   101   am
    46    63    62    1
    47    64    65    1
    48   103   104    1
    49   103   100    1
    50    13    14    1
    51    13    11   am
    52    14    17    1
    53   106   104    1
    54    62    61   ar
    55    62    60   ar
    56   101   100    1
    57   101   102    2
    58    61    59   ar
    59    45    46    2
    60    68    65    1
    61    42    41    1
    62    41    40    1
    63    10    11    1
    64    10     9    1
    65    60    58   ar
    66    65    66    1
    67   100    99    1
    68    11    12    2
    69     4     3    2
    70    59    57   ar
    71    52    53    1
    72    24    26    1
    73    24    23    1
    74    58    57   ar
    75     9     3   am
    76    67    66    2
    77    57    56    1
    78    77    78    1
    79    77    76    1
    80     3     2    1
    81    40    39    1
    82    99    90   am
    83    53    56    1
    84    53    54    1
    85    23    25    1
    86    23    20    1
    87    86    85   ar
    88    39    38    1
    89    91    90    2
    90    90    89    1
    91     2     5    1
    92     2     1    1
    93    76    75    1
    94     5     6    1
    95     5     7    1
    96    54    55    2
    97     6     8    1
    98    85    87   ar
    99    85    84    1
   100    82    81    2
   101    19    20    1
   102    20    21    1
   103    38    35    1
   104    84    83    1
   105    89    88    1
   106    89    92    1
   107    83    80    1
   108    81    88   am
   109    81    80    1
   110    75    72    1
   111    93    92    1
   112    93    94    1
   113    22    21    2
   114    32    31    1
   115    95    94    1
   116    95    96    2
   117    33    31    1
   118    98    96    1
   119    35    36    1
   120    35    34    1
   121    80    79    1
   122    79    73   am
   123    31    28    1
   124    96    97    1
   125    72    73    1
   126    72    71    1
   127    36    37    2
   128    73    74    2
   129    28    29    1
   130    28    27    1
   131    29    30    2
