@<TRIPOS>MOLECULE
tmp/6ncjA00.pdb
 95 94 0 0 0
SMALL
GASTEIGER

@<TRIPOS>ATOM
      1  N        -25.7050   13.6140   -9.3500 N.3    40  GLN40      -0.1245
      2  CA       -25.7440   12.6610  -10.4490 C.3    40  GLN40       0.1566
      3  C        -26.4970   11.3860  -10.1360 C.2    40  GLN40       0.2260
      4  O        -27.1840   10.8570  -11.0170 O.2    40  GLN40      -0.2867
      5  CB       -24.3410   12.3400  -10.9690 C.3    40  GLN40       0.0367
      6  CG       -23.7130   13.5330  -11.7070 C.3    40  GLN40       0.0905
      7  CD       -22.6410   13.1640  -12.7120 C.2    40  GLN40       0.2608
      8  OE1      -22.5220   12.0160  -13.1650 O.2    40  GLN40      -0.2717
      9  NE2      -21.8420   14.1520  -13.1020 N.am   40  GLN40      -0.0878
     10  N        -30.2010   12.3430   -9.7940 N.3    43  ALA43      -0.1231
     11  CA       -30.7360   12.6280  -11.1350 C.3    43  ALA43       0.1694
     12  C        -31.0480   11.3300  -11.8800 C.2    43  ALA43       0.2592
     13  O        -32.1320   11.1770  -12.4470 O.2    43  ALA43      -0.2718
     14  CB       -29.7380   13.4550  -11.9400 C.3    43  ALA43       0.0304
     15  N        -30.0850   10.4060  -11.8990 N.am   44  TYR44      -0.1976
     16  CA       -30.2780    9.1450  -12.5850 C.3    44  TYR44       0.1639
     17  C        -31.4500    8.3430  -11.9830 C.2    44  TYR44       0.2290
     18  O        -32.2360    7.7560  -12.7320 O.2    44  TYR44      -0.2864
     19  CB       -28.9800    8.3170  -12.5480 C.3    44  TYR44       0.0560
     20  CG       -29.1190    7.0330  -13.3280 C.ar   44  TYR44      -0.0198
     21  CD1      -29.2160    7.0470  -14.7150 C.ar   44  TYR44      -0.0009
     22  CD2      -29.1900    5.7980  -12.6770 C.ar   44  TYR44      -0.0009
     23  CE1      -29.3670    5.8710  -15.4390 C.ar   44  TYR44       0.0417
     24  CE2      -29.3170    4.6140  -13.3950 C.ar   44  TYR44       0.0417
     25  CZ       -29.4220    4.6600  -14.7740 C.ar   44  TYR44       0.1957
     26  OH       -29.5830    3.5160  -15.5010 O.3    44  TYR44      -0.2866
     27  N        -34.7990    9.9140  -12.9740 N.3    47  LEU47      -0.1245
     28  CA       -35.1000    9.6120  -14.3720 C.3    47  LEU47       0.1561
     29  C        -35.6830    8.1930  -14.4700 C.2    47  LEU47       0.2260
     30  O        -36.6800    7.9880  -15.1730 O.2    47  LEU47      -0.2867
     31  CB       -33.8140    9.7800  -15.2080 C.3    47  LEU47       0.0270
     32  CG       -33.8770    9.6490  -16.7270 C.3    47  LEU47       0.0019
     33  CD1      -34.8680   10.6390  -17.3570 C.3    47  LEU47       0.0001
     34  CD2      -32.4970    9.8740  -17.3160 C.3    47  LEU47       0.0001
     35  N        -27.6310   21.0540  -10.7840 N.3    69  THR69      -0.1203
     36  CA       -28.1350   21.2650  -12.1470 C.3    69  THR69       0.1994
     37  C        -28.4450   19.9290  -12.8500 C.2    69  THR69       0.2618
     38  O        -29.2510   19.9060  -13.7750 O.2    69  THR69      -0.2717
     39  CB       -27.2310   22.1880  -12.9920 C.3    69  THR69       0.1784
     40  OG1      -26.0110   21.5200  -13.3070 O.3    69  THR69      -0.2211
     41  CG2      -26.9880   23.5490  -12.3490 C.3    69  THR69       0.0376
     42  N        -27.8080   18.8330  -12.4070 N.am   70  THR70      -0.1952
     43  CA       -28.0470   17.4770  -12.9240 C.3    70  THR70       0.1897
     44  C        -29.4410   17.0010  -12.4670 C.2    70  THR70       0.2313
     45  O        -30.1960   16.4640  -13.2740 O.2    70  THR70      -0.2863
     46  CB       -26.8920   16.5240  -12.5570 C.3    70  THR70       0.1794
     47  OG1      -26.8620   16.3410  -11.1480 O.3    70  THR70      -0.2208
     48  CG2      -25.5440   17.0560  -12.9950 C.3    70  THR70       0.0378
     49  N        -31.8240   19.1360  -11.5160 N.3    72  LYS72      -0.1231
     50  CA       -32.7180   20.0670  -12.2160 C.3    72  LYS72       0.1693
     51  C        -33.0230   19.5680  -13.6350 C.2    72  LYS72       0.2592
     52  O        -34.1850   19.6060  -14.0400 O.2    72  LYS72      -0.2718
     53  CB       -32.1420   21.5090  -12.2440 C.3    72  LYS72       0.0285
     54  CG       -32.1360   22.2060  -10.8680 C.3    72  LYS72       0.0035
     55  CD       -33.5470   22.5690  -10.3670 C.3    72  LYS72       0.0206
     56  CE       -33.5770   23.2520   -9.0130 C.3    72  LYS72       0.1093
     57  NZ       -33.0490   24.6420   -9.0670 N.3    72  LYS72      -0.1314
     58  N        -32.0060   19.0550  -14.3520 N.am   73  ALA73      -0.1966
     59  CA       -32.2040   18.5090  -15.7070 C.3    73  ALA73       0.1728
     60  C        -33.1180   17.2840  -15.6870 C.2    73  ALA73       0.2616
     61  O        -34.0120   17.1800  -16.5390 O.2    73  ALA73      -0.2715
     62  CB       -30.8730   18.1870  -16.3690 C.3    73  ALA73       0.0334
     63  N        -32.9350   16.3750  -14.6910 N.am   74  ALA74      -0.1977
     64  CA       -33.7950   15.1810  -14.5900 C.3    74  ALA74       0.1597
     65  C        -35.2410   15.6090  -14.3690 C.2    74  ALA74       0.2287
     66  O        -36.1110   15.1130  -15.0570 O.2    74  ALA74      -0.2864
     67  CB       -33.3300   14.2520  -13.4550 C.3    74  ALA74       0.0319
     68  N        -36.6770   18.5770  -15.0720 N.3    76  TRP76      -0.1227
     69  CA       -37.1380   19.2960  -16.2770 C.3    76  TRP76       0.1737
     70  C        -37.4660   18.2940  -17.4030 C.2    76  TRP76       0.2595
     71  O        -38.5080   18.3960  -18.0260 O.2    76  TRP76      -0.2718
     72  CB       -36.0660   20.2850  -16.7680 C.3    76  TRP76       0.0564
     73  CG       -36.2640   20.7290  -18.1970 C.ar   76  TRP76       0.0003
     74  CD1      -37.1060   21.7080  -18.6360 C.ar   76  TRP76       0.0946
     75  CD2      -35.6100   20.2050  -19.3700 C.ar   76  TRP76       0.0152
     76  NE1      -37.0230   21.8250  -20.0040 N.ar   76  TRP76      -0.2442
     77  CE2      -36.1210   20.9100  -20.4830 C.ar   76  TRP76       0.0810
     78  CE3      -34.6600   19.1900  -19.5910 C.ar   76  TRP76       0.0012
     79  CZ2      -35.6930   20.6550  -21.7970 C.ar   76  TRP76       0.0191
     80  CZ3      -34.2920   18.8910  -20.8960 C.ar   76  TRP76       0.0001
     81  CH2      -34.7890   19.6310  -21.9810 C.ar   76  TRP76       0.0015
     82  N        -36.5890   17.3190  -17.6400 N.am   77  TRP77      -0.1976
     83  CA       -36.8250   16.3710  -18.7240 C.3    77  TRP77       0.1640
     84  C        -38.0420   15.4850  -18.4600 C.2    77  TRP77       0.2290
     85  O        -38.8660   15.2800  -19.3600 O.2    77  TRP77      -0.2864
     86  CB       -35.5610   15.5600  -19.0500 C.3    77  TRP77       0.0576
     87  CG       -35.6880   14.8300  -20.3500 C.ar   77  TRP77       0.0006
     88  CD1      -35.3380   15.2870  -21.5900 C.ar   77  TRP77       0.0946
     89  CD2      -36.2890   13.5430  -20.5470 C.ar   77  TRP77       0.0152
     90  NE1      -35.6410   14.3380  -22.5420 N.ar   77  TRP77      -0.2442
     91  CE2      -36.2320   13.2610  -21.9300 C.ar   77  TRP77       0.0810
     92  CE3      -36.8430   12.5810  -19.6780 C.ar   77  TRP77       0.0012
     93  CZ2      -36.7560   12.0840  -22.4730 C.ar   77  TRP77       0.0191
     94  CZ3      -37.3350   11.4040  -20.2110 C.ar   77  TRP77       0.0001
     95  CH2      -37.3080   11.1700  -21.5940 C.ar   77  TRP77       0.0015
@<TRIPOS>BOND
     1    90    91   ar
     2    90    88   ar
     3    93    91   ar
     4    93    95   ar
     5    81    79   ar
     6    81    80   ar
     7    91    89   ar
     8    79    77   ar
     9    95    94   ar
    10    88    87   ar
    11    80    78   ar
    12    89    87   ar
    13    89    92   ar
    14    77    76   ar
    15    77    75   ar
    16    87    86    1
    17    94    92   ar
    18    76    74   ar
    19    78    75   ar
    20    75    73   ar
    21    85    84    2
    22    86    83    1
    23    83    84    1
    24    83    82    1
    25    74    73   ar
    26    73    72    1
    27    71    70    2
    28    82    70   am
    29    70    69    1
    30    33    32    1
    31    34    32    1
    32    72    69    1
    33    32    31    1
    34    61    60    2
    35    62    59    1
    36    69    68    1
    37    59    60    1
    38    59    58    1
    39    60    63   am
    40    26    25    1
    41    23    25   ar
    42    23    21   ar
    43    31    28    1
    44    30    29    2
    45    66    65    2
    46    25    24   ar
    47    21    20   ar
    48    63    64    1
    49    64    65    1
    50    64    67    1
    51    29    28    1
    52    28    27    1
    53    58    51   am
    54    52    51    2
    55    38    37    2
    56    51    50    1
    57    24    22   ar
    58    20    22   ar
    59    20    19    1
    60    40    39    1
    61    45    44    2
    62     8     7    2
    63     9     7   am
    64    48    46    1
    65    39    41    1
    66    39    36    1
    67    43    46    1
    68    43    44    1
    69    43    42    1
    70    37    42   am
    71    37    36    1
    72    18    17    2
    73     7     6    1
    74    16    19    1
    75    16    17    1
    76    16    15    1
    77    46    47    1
    78    13    12    2
    79    53    50    1
    80    53    54    1
    81    50    49    1
    82    36    35    1
    83    14    11    1
    84    15    12   am
    85    12    11    1
    86     6     5    1
    87    11    10    1
    88     4     3    2
    89     5     2    1
    90    54    55    1
    91     2     3    1
    92     2     1    1
    93    55    56    1
    94    57    56    1
