@<TRIPOS>MOLECULE
tmp/6ncrA00.pdb
 128 120 0 0 0
SMALL
GASTEIGER

@<TRIPOS>ATOM
      1  N         12.4130   28.7250   25.2530 N.3     6  LEU6       -0.1231
      2  CA        12.1030   27.4730   24.5830 C.3     6  LEU6        0.1693
      3  C         10.9770   27.7000   23.5910 C.2     6  LEU6        0.2593
      4  O          9.9430   28.2730   23.9360 O.2     6  LEU6       -0.2718
      5  CB        11.7390   26.3700   25.5930 C.3     6  LEU6        0.0284
      6  CG        11.7430   24.9630   24.9640 C.3     6  LEU6        0.0019
      7  CD1       12.1950   23.9050   25.9970 C.3     6  LEU6        0.0001
      8  CD2       10.3890   24.5830   24.4110 C.3     6  LEU6        0.0001
      9  N         11.1840   27.2580   22.3560 N.am    7  THR7       -0.1939
     10  CA        10.1200   27.2280   21.3620 C.3     7  THR7        0.2028
     11  C         10.5210   26.2030   20.3110 C.2     7  THR7        0.2643
     12  O         11.6070   25.6210   20.3730 O.2     7  THR7       -0.2714
     13  CB         9.8610   28.6050   20.7470 C.3     7  THR7        0.1808
     14  OG1        8.6940   28.5310   19.9140 O.3     7  THR7       -0.2208
     15  CG2       11.0650   29.0870   19.9080 C.3     7  THR7        0.0379
     16  N          9.6430   25.9810   19.3460 N.am    8  GLY8       -0.1939
     17  CA         9.9610   25.0150   18.3150 C.3     8  GLY8        0.2014
     18  C          8.7170   24.6220   17.5500 C.2     8  GLY8        0.2639
     19  O          7.7390   25.3610   17.5090 O.2     8  GLY8       -0.2714
     20  N          8.8030   23.4550   16.9130 N.am    9  ASP9       -0.1957
     21  CA         7.8060   23.0370   15.9380 C.3     9  ASP9        0.1840
     22  C          7.6850   21.5260   15.8990 C.2     9  ASP9        0.2621
     23  O          8.6810   20.8020   16.0400 O.2     9  ASP9       -0.2715
     24  CB         8.1760   23.4940   14.5230 C.3     9  ASP9        0.1450
     25  CG         8.1200   24.9910   14.3700 C.2     9  ASP9        0.3671
     26  OD1        7.0100   25.5090   14.1810 O.co2   9  ASP9       -0.2456
     27  OD2        9.1800   25.6340   14.4780 O.co2   9  ASP9       -0.2456
     28  N          6.4570   21.0620   15.6660 N.am   10  ARG10      -0.1977
     29  CA         6.2730   19.7110   15.1270 C.3    10  ARG10       0.1597
     30  C          6.9690   19.6130   13.7770 C.2    10  ARG10       0.2287
     31  O          6.7820   20.5010   12.9290 O.2    10  ARG10      -0.2864
     32  CB         4.7910   19.3930   14.9390 C.3    10  ARG10       0.0334
     33  CG         4.0630   19.0120   16.2240 C.3    10  ARG10       0.0492
     34  CD         2.5630   18.9660   16.0000 C.3    10  ARG10       0.2205
     35  NE         2.0430   20.3150   15.8260 N.pl3  10  ARG10      -0.0865
     36  CZ         1.6260   20.8300   14.6750 C.cat  10  ARG10       0.5346
     37  NH1        1.6220   20.0900   13.5640 N.pl3  10  ARG10       0.1354
     38  NH2        1.1970   22.0980   14.6460 N.pl3  10  ARG10       0.1354
     39  N         12.8820   23.0060   20.1860 N.3    41  ILE41      -0.1245
     40  CA        12.3870   21.6330   20.2020 C.3    41  ILE41       0.1561
     41  C         11.9180   21.2510   18.8100 C.2    41  ILE41       0.2260
     42  O         11.2230   22.0180   18.1280 O.2    41  ILE41      -0.2867
     43  CB        11.2480   21.4650   21.2300 C.3    41  ILE41       0.0252
     44  CG1       10.7160   20.0330   21.2080 C.3    41  ILE41       0.0019
     45  CG2       10.0910   22.4410   20.9400 C.3    41  ILE41       0.0019
     46  CD1        9.6450   19.7830   22.2760 C.3    41  ILE41       0.0001
     47  N          9.4170   18.6210   17.7910 N.3    43  ALA43      -0.1245
     48  CA         8.4570   17.9710   18.6860 C.3    43  ALA43       0.1562
     49  C          7.8230   16.7760   17.9780 C.2    43  ALA43       0.2260
     50  O          6.6580   16.7940   17.5820 O.2    43  ALA43      -0.2867
     51  CB         7.4030   18.9940   19.1420 C.3    43  ALA43       0.0290
     52  N          4.6690   15.1140   19.5400 N.3    46  HIS46      -0.1241
     53  CA         3.4130   15.8010   19.2910 C.3    46  HIS46       0.1621
     54  C          2.8110   15.4450   17.9380 C.2    46  HIS46       0.2264
     55  O          1.6000   15.5950   17.7490 O.2    46  HIS46      -0.2867
     56  CB         3.6230   17.3240   19.4070 C.3    46  HIS46       0.0745
     57  CG         3.4220   17.8520   20.7900 C.ar   46  HIS46       0.0817
     58  ND1        4.4680   18.1610   21.6290 N.ar   46  HIS46      -0.2268
     59  CD2        2.2890   18.0990   21.4900 C.ar   46  HIS46       0.1154
     60  CE1        3.9900   18.5910   22.7840 C.ar   46  HIS46       0.1986
     61  NE2        2.6680   18.5720   22.7230 N.ar   46  HIS46      -0.2212
     62  N         -2.4080   17.2480   24.3800 N.3   135  TYR135     -0.1241
     63  CA        -1.4220   18.0630   23.6640 C.3   135  TYR135      0.1605
     64  C         -0.8320   19.1590   24.5420 C.2   135  TYR135      0.2264
     65  O          0.4030   19.2280   24.6460 O.2   135  TYR135     -0.2867
     66  CB        -2.0410   18.6510   22.3730 C.3   135  TYR135      0.0534
     67  CG        -1.0650   19.2550   21.3830 C.ar  135  TYR135     -0.0201
     68  CD1       -0.3470   20.4170   21.6870 C.ar  135  TYR135     -0.0009
     69  CD2       -0.8950   18.6960   20.1150 C.ar  135  TYR135     -0.0009
     70  CE1        0.5580   20.9690   20.7810 C.ar  135  TYR135      0.0417
     71  CE2        0.0000   19.2460   19.1850 C.ar  135  TYR135      0.0417
     72  CZ         0.7150   20.3850   19.5240 C.ar  135  TYR135      0.1957
     73  OH         1.5950   20.9350   18.6280 O.3   135  TYR135     -0.2866
     74  N          3.0520   19.6260   25.9640 N.3   139  GLN139     -0.1245
     75  CA         3.7780   20.8650   25.6760 C.3   139  GLN139      0.1566
     76  C          4.2350   21.5420   26.9630 C.2   139  GLN139      0.2260
     77  O          5.3400   22.1060   27.0280 O.2   139  GLN139     -0.2867
     78  CB         2.8820   21.7940   24.8570 C.3   139  GLN139      0.0367
     79  CG         3.5890   23.0360   24.3780 C.3   139  GLN139      0.0905
     80  CD         2.7610   23.7940   23.3520 C.2   139  GLN139      0.2608
     81  OE1        1.6130   23.4360   23.0690 O.2   139  GLN139     -0.2717
     82  NE2        3.3430   24.8370   22.7830 N.am  139  GLN139     -0.0878
     83  N          7.2850   19.8240   28.0320 N.3   142  ASP142     -0.1225
     84  CA         8.4410   20.3100   27.2760 C.3   142  ASP142      0.1805
     85  C          9.0070   21.5780   27.8980 C.2   142  ASP142      0.2597
     86  O         10.2210   21.7080   28.1030 O.2   142  ASP142     -0.2718
     87  CB         8.0580   20.6410   25.8270 C.3   142  ASP142      0.1424
     88  CG         7.5620   19.4500   25.0380 C.2   142  ASP142      0.3668
     89  OD1        8.1510   18.3500   25.1660 O.co2 142  ASP142     -0.2456
     90  OD2        6.6210   19.6360   24.2270 O.co2 142  ASP142     -0.2456
     91  N          8.1270   22.5510   28.1350 N.am  143  ILE143     -0.1980
     92  CA         8.5440   23.8780   28.5860 C.3   143  ILE143      0.1595
     93  C          9.1410   23.8080   29.9820 C.2   143  ILE143      0.2287
     94  O         10.2080   24.3720   30.2490 O.2   143  ILE143     -0.2864
     95  CB         7.3340   24.8300   28.5530 C.3   143  ILE143      0.0276
     96  CG1        6.8800   25.0300   27.1010 C.3   143  ILE143      0.0022
     97  CG2        7.6610   26.1380   29.2730 C.3   143  ILE143      0.0022
     98  CD1        5.5600   25.8100   26.9470 C.3   143  ILE143      0.0001
     99  N          8.5750   31.8750   26.4100 N.3   151  VAL151     -0.1245
    100  CA         8.1070   30.9120   25.4130 C.3   151  VAL151      0.1561
    101  C          7.4630   31.6640   24.2540 C.2   151  VAL151      0.2260
    102  O          6.3160   32.1190   24.3710 O.2   151  VAL151     -0.2867
    103  CB         7.1460   29.8830   26.0390 C.3   151  VAL151      0.0252
    104  CG1        6.6230   28.8790   24.9920 C.3   151  VAL151      0.0019
    105  CG2        7.8370   29.1140   27.1580 C.3   151  VAL151      0.0019
    106  N          5.3460   31.7050   21.0660 N.3   153  VAL153     -0.1245
    107  CA         4.3570   30.7990   20.4950 C.3   153  VAL153      0.1561
    108  C          3.4420   31.6050   19.6040 C.2   153  VAL153      0.2260
    109  O          3.2870   32.8230   19.7700 O.2   153  VAL153     -0.2867
    110  CB         3.5060   30.0410   21.5470 C.3   153  VAL153      0.0252
    111  CG1        4.2470   28.8120   22.0840 C.3   153  VAL153      0.0019
    112  CG2        3.0910   30.9730   22.6810 C.3   153  VAL153      0.0019
    113  N         -2.4930   30.5190   18.2070 N.3   156  ASP156     -0.1225
    114  CA        -3.2400   29.3140   18.5440 C.3   156  ASP156      0.1805
    115  C         -2.5790   28.5010   19.6460 C.2   156  ASP156      0.2597
    116  O         -3.1700   27.5230   20.1110 O.2   156  ASP156     -0.2718
    117  CB        -3.4240   28.4300   17.3070 C.3   156  ASP156      0.1424
    118  CG        -2.1310   27.7650   16.8650 C.2   156  ASP156      0.3668
    119  OD1       -1.1030   28.4670   16.7410 O.co2 156  ASP156     -0.2456
    120  OD2       -2.1420   26.5350   16.6520 O.co2 156  ASP156     -0.2456
    121  N         -1.3730   28.8720   20.0680 N.am  157  ASN157     -0.1974
    122  CA        -0.6720   28.1380   21.0990 C.3   157  ASN157      0.1688
    123  C         -0.5450   28.9120   22.4000 C.2   157  ASN157      0.2292
    124  O         -0.0790   28.3450   23.3950 O.2   157  ASN157     -0.2864
    125  CB         0.7240   27.7350   20.6070 C.3   157  ASN157      0.1181
    126  CG         0.7590   26.3240   20.0510 C.2   157  ASN157      0.2629
    127  OD1        1.4810   25.4780   20.5570 O.2   157  ASN157     -0.2716
    128  ND2       -0.0370   26.0630   19.0160 N.am  157  ASN157     -0.0877
@<TRIPOS>BOND
     1    31    30    2
     2    37    36    1
     3    30    29    1
     4    26    25   ar
     5    25    27   ar
     6    25    24    1
     7    24    21    1
     8    38    36    1
     9    36    35    2
    10    32    29    1
    11    32    33    1
    12    29    28    1
    13    28    22   am
    14    35    34    1
    15    22    21    1
    16    22    23    2
    17    21    20    1
    18    34    33    1
    19   120   118   ar
    20   119   118   ar
    21   118   117    1
    22    20    18   am
    23   117   114    1
    24    19    18    2
    25    18    17    1
    26    50    49    2
    27    55    54    2
    28    47    48    1
    29    54    53    1
    30    49    48    1
    31    42    41    2
    32   113   114    1
    33    17    16    1
    34   114   115    1
    35    73    72    1
    36    48    51    1
    37    41    40    1
    38   128   126   am
    39    71    72   ar
    40    71    69   ar
    41    53    56    1
    42    53    52    1
    43    16    11   am
    44    56    57    1
    45    72    70   ar
    46   108   109    2
    47   108   107    1
    48   115   121   am
    49   115   116    2
    50    15    13    1
    51    14    13    1
    52   126   127    2
    53   126   125    1
    54   121   122    1
    55    69    67   ar
    56    39    40    1
    57    40    43    1
    58    11    12    2
    59    11    10    1
    60   107   106    1
    61   107   110    1
    62   125   122    1
    63    13    10    1
    64    70    68   ar
    65    57    59   ar
    66    57    58   ar
    67    45    43    1
    68   122   123    1
    69    44    43    1
    70    44    46    1
    71    10     9    1
    72    67    68   ar
    73    67    66    1
    74    59    61   ar
    75   110   111    1
    76   110   112    1
    77    58    60   ar
    78     9     3   am
    79    66    63    1
    80   123   124    2
    81    61    60   ar
    82    82    80   am
    83    81    80    2
    84    80    79    1
    85     3     4    2
    86     3     2    1
    87    63    62    1
    88    63    64    1
    89    90    88   ar
    90   101   102    2
    91   101   100    1
    92    79    78    1
    93     8     6    1
    94    64    65    2
    95     2     1    1
    96     2     5    1
    97    78    75    1
    98     6     5    1
    99     6     7    1
   100   104   103    1
   101    88    89   ar
   102    88    87    1
   103   100   103    1
   104   100    99    1
   105    75    74    1
   106    75    76    1
   107    87    84    1
   108   103   105    1
   109    98    96    1
   110    76    77    2
   111    96    95    1
   112    84    85    1
   113    84    83    1
   114    85    86    2
   115    85    91   am
   116    91    92    1
   117    95    92    1
   118    95    97    1
   119    92    93    1
   120    93    94    2
