@<TRIPOS>MOLECULE
tmp/6ncsB01.pdb
 149 137 0 0 0
SMALL
GASTEIGER

@<TRIPOS>ATOM
      1  N         18.2670   22.9190   79.2700 N.3    26  GLU26      -0.1245
      2  CA        18.5440   22.4290   80.6170 C.3    26  GLU26       0.1567
      3  C         18.8060   23.6480   81.4950 C.2    26  GLU26       0.2260
      4  O         19.8940   24.2260   81.4680 O.2    26  GLU26      -0.2867
      5  CB        19.7190   21.4470   80.5900 C.3    26  GLU26       0.0388
      6  CG        20.5420   21.2810   81.8780 C.3    26  GLU26       0.1160
      7  CD        19.7880   20.6580   83.0370 C.2    26  GLU26       0.3649
      8  OE1       18.6150   21.0060   83.2620 O.co2  26  GLU26      -0.2457
      9  OE2       20.3830   19.8090   83.7450 O.co2  26  GLU26      -0.2457
     10  N         14.0460   21.9280   81.2480 N.3    54  LYS54      -0.1245
     11  CA        14.2960   20.8880   82.2340 C.3    54  LYS54       0.1561
     12  C         14.9230   21.4880   83.4840 C.2    54  LYS54       0.2260
     13  O         15.7760   22.3760   83.3970 O.2    54  LYS54      -0.2867
     14  CB        15.2300   19.8070   81.6450 C.3    54  LYS54       0.0271
     15  CG        15.3270   18.5510   82.4930 C.3    54  LYS54       0.0035
     16  CD        16.4150   17.6180   81.9560 C.3    54  LYS54       0.0206
     17  CE        17.7940   18.0510   82.4320 C.3    54  LYS54       0.1093
     18  NZ        17.7700   18.3400   83.9110 N.3    54  LYS54      -0.1314
     19  N         16.0760   20.3450   87.8750 N.3    56  GLN56      -0.1245
     20  CA        16.6950   19.2580   88.6260 C.3    56  GLN56       0.1566
     21  C         16.0330   19.1640   89.9870 C.2    56  GLN56       0.2260
     22  O         15.8890   20.1800   90.6720 O.2    56  GLN56      -0.2867
     23  CB        18.2060   19.4750   88.7960 C.3    56  GLN56       0.0367
     24  CG        18.9780   19.4540   87.4710 C.3    56  GLN56       0.0905
     25  CD        20.4710   19.6090   87.6890 C.2    56  GLN56       0.2608
     26  OE1       20.9570   19.5380   88.8220 O.2    56  GLN56      -0.2717
     27  NE2       21.2050   19.8330   86.6060 N.am   56  GLN56      -0.0878
     28  N         22.7560   13.9420   97.3070 N.3    63  ARG63      -0.1245
     29  CA        23.4330   14.0170   96.0160 C.3    63  ARG63       0.1563
     30  C         24.9530   14.1040   96.1600 C.2    63  ARG63       0.2260
     31  O         25.6890   13.5610   95.3240 O.2    63  ARG63      -0.2867
     32  CB        22.8950   15.2150   95.2290 C.3    63  ARG63       0.0307
     33  CG        23.3490   15.3060   93.7800 C.3    63  ARG63       0.0489
     34  CD        22.6670   16.4870   93.1000 C.3    63  ARG63       0.2205
     35  NE        23.2330   16.7960   91.7820 N.pl3  63  ARG63      -0.0865
     36  CZ        22.7590   17.7440   90.9810 C.cat  63  ARG63       0.5346
     37  NH1       21.7040   18.4510   91.3610 N.pl3  63  ARG63       0.1354
     38  NH2       23.3170   17.9770   89.7970 N.pl3  63  ARG63       0.1354
     39  N         15.0530   16.2870   86.1480 N.3   101  THR101     -0.1218
     40  CA        15.9020   15.1660   86.5180 C.3   101  THR101      0.1862
     41  C         15.7130   14.8780   87.9920 C.2   101  THR101      0.2287
     42  O         16.1420   15.6970   88.8220 O.2   101  THR101     -0.2866
     43  CB        17.3680   15.4990   86.2530 C.3   101  THR101      0.1770
     44  OG1       17.5430   15.8450   84.8750 O.3   101  THR101     -0.2211
     45  CG2       18.2700   14.3240   86.6190 C.3   101  THR101      0.0375
     46  N         17.0290   12.9830   91.3050 N.3   103  PHE103     -0.1241
     47  CA        18.2660   12.3600   91.7490 C.3   103  PHE103      0.1605
     48  C         18.0330   11.3310   92.8460 C.2   103  PHE103      0.2264
     49  O         18.9870   10.6950   93.3000 O.2   103  PHE103     -0.2867
     50  CB        19.2560   13.4340   92.2040 C.3   103  PHE103      0.0534
     51  CG        19.8710   14.2000   91.0580 C.ar  103  PHE103     -0.0203
     52  CD1       21.1480   13.8890   90.6110 C.ar  103  PHE103     -0.0042
     53  CD2       19.1670   15.2050   90.4180 C.ar  103  PHE103     -0.0042
     54  CE1       21.7180   14.5770   89.5540 C.ar  103  PHE103     -0.0003
     55  CE2       19.7260   15.9000   89.3650 C.ar  103  PHE103     -0.0003
     56  CZ        21.0050   15.5780   88.9250 C.ar  103  PHE103     -0.0000
     57  N         14.2600   12.7200   83.1130 N.3   120  LYS120     -0.1245
     58  CA        15.6660   12.6410   82.7320 C.3   120  LYS120      0.1561
     59  C         16.4550   11.9730   83.8490 C.2   120  LYS120      0.2260
     60  O         16.2530   12.2800   85.0230 O.2   120  LYS120     -0.2867
     61  CB        16.2500   14.0270   82.4700 C.3   120  LYS120      0.0271
     62  CG        17.7540   14.0240   82.2400 C.3   120  LYS120      0.0035
     63  CD        18.0650   13.4810   80.8510 C.3   120  LYS120      0.0206
     64  CE        19.5690   13.3430   80.6620 C.3   120  LYS120      0.1093
     65  NZ        20.2600   14.6410   80.9120 N.3   120  LYS120     -0.1314
     66  N         20.4130   11.5460   85.0520 N.3   122  ALA122     -0.1231
     67  CA        21.7380   12.1320   84.8440 C.3   122  ALA122      0.1694
     68  C         22.8020   11.0750   84.5470 C.2   122  ALA122      0.2593
     69  O         22.6830    9.9150   84.9410 O.2   122  ALA122     -0.2718
     70  CB        22.1480   12.9230   86.0840 C.3   122  ALA122      0.0304
     71  N         23.8610   11.4970   83.8370 N.am  123  SER123     -0.1938
     72  CA        24.9480   10.5750   83.5090 C.3   123  SER123      0.2055
     73  C         25.5140    9.9250   84.7580 C.2   123  SER123      0.2643
     74  O         25.8180    8.7250   84.7610 O.2   123  SER123     -0.2714
     75  CB        26.0630   11.3020   82.7570 C.3   123  SER123      0.2130
     76  OG        25.6090   11.7540   81.4890 O.3   123  SER123     -0.2179
     77  N         25.6790   10.7050   85.8240 N.am  124  CYS124     -0.1967
     78  CA        26.2280   10.1910   87.0670 C.3   124  CYS124      0.1712
     79  C         25.3700    9.0990   87.6880 C.2   124  CYS124      0.2296
     80  O         25.8380    8.4340   88.6180 O.2   124  CYS124     -0.2864
     81  CB        26.4140   11.3470   88.0610 C.3   124  CYS124      0.0983
     82  SG        24.8670   12.0920   88.7010 S.3   124  CYS124     -0.0798
     83  N         21.2740    9.8140   79.9860 N.3   145  SER145     -0.1217
     84  CA        22.5540   10.2130   79.4140 C.3   145  SER145      0.1889
     85  C         23.6180    9.2020   79.8180 C.2   145  SER145      0.2288
     86  O         23.5770    8.6610   80.9230 O.2   145  SER145     -0.2866
     87  CB        22.9560   11.6130   79.8900 C.3   145  SER145      0.2089
     88  OG        22.2350   12.6220   79.2080 O.3   145  SER145     -0.2183
     89  N         26.9040   11.6550   75.6110 N.3   173  CYS173     -0.1235
     90  CA        27.2320   12.7000   76.5700 C.3   173  CYS173      0.1677
     91  C         28.6690   12.4780   77.0120 C.2   173  CYS173      0.2270
     92  O         29.1270   11.3350   77.0850 O.2   173  CYS173     -0.2867
     93  CB        26.2710   12.6450   77.7720 C.3   173  CYS173      0.0956
     94  SG        26.5020   13.9730   78.9730 S.3   173  CYS173     -0.0801
     95  N         33.4880   19.3880   82.0390 N.3   177  TYR177     -0.1241
     96  CA        32.8750   20.7060   82.2370 C.3   177  TYR177      0.1605
     97  C         33.9280   21.8020   82.3260 C.2   177  TYR177      0.2264
     98  O         34.6570   21.8720   83.3380 O.2   177  TYR177     -0.2867
     99  CB        32.0240   20.7160   83.5070 C.3   177  TYR177      0.0534
    100  CG        31.0550   19.5700   83.5910 C.ar  177  TYR177     -0.0201
    101  CD1       31.4470   18.3390   84.1040 C.ar  177  TYR177     -0.0009
    102  CD2       29.7480   19.7140   83.1520 C.ar  177  TYR177     -0.0009
    103  CE1       30.5550   17.2770   84.1680 C.ar  177  TYR177      0.0417
    104  CE2       28.8550   18.6650   83.2170 C.ar  177  TYR177      0.0417
    105  CZ        29.2630   17.4500   83.7240 C.ar  177  TYR177      0.1957
    106  OH        28.3650   16.4080   83.7860 O.3   177  TYR177     -0.2866
    107  N         23.6250   15.1580   74.6620 N.3   203  SER203     -0.1217
    108  CA        23.5750   16.1530   75.7250 C.3   203  SER203      0.1889
    109  C         24.8970   16.9090   75.7410 C.2   203  SER203      0.2288
    110  O         25.9610   16.2950   75.8700 O.2   203  SER203     -0.2866
    111  CB        23.3320   15.4830   77.0760 C.3   203  SER203      0.2089
    112  OG        23.3930   16.4380   78.1110 O.3   203  SER203     -0.2183
    113  N         27.9240   19.6180   76.7990 N.3   205  HIS205     -0.1241
    114  CA        28.5930   20.2750   77.9150 C.3   205  HIS205      0.1621
    115  C         29.7200   21.1730   77.4160 C.2   205  HIS205      0.2264
    116  O         30.6990   21.3970   78.1270 O.2   205  HIS205     -0.2867
    117  CB        29.1280   19.2440   78.9020 C.3   205  HIS205      0.0745
    118  CG        28.0470   18.5340   79.6560 C.ar  205  HIS205      0.0817
    119  ND1       27.9270   17.1620   79.6730 N.ar  205  HIS205     -0.2268
    120  CD2       27.0320   19.0110   80.4170 C.ar  205  HIS205      0.1154
    121  CE1       26.8870   16.8240   80.4170 C.ar  205  HIS205      0.1986
    122  NE2       26.3280   17.9270   80.8790 N.ar  205  HIS205     -0.2212
    123  N         20.1500   18.2180   74.1220 N.3   224  GLU224     -0.1245
    124  CA        20.0130   18.8930   75.4000 C.3   224  GLU224      0.1567
    125  C         21.1670   19.8830   75.5170 C.2   224  GLU224      0.2260
    126  O         22.3160   19.5370   75.2280 O.2   224  GLU224     -0.2867
    127  CB        20.0170   17.8810   76.5520 C.3   224  GLU224      0.0388
    128  CG        19.7770   18.4970   77.9230 C.3   224  GLU224      0.1160
    129  CD        19.8410   17.4650   79.0410 C.2   224  GLU224      0.3649
    130  OE1       18.9330   16.6130   79.1340 O.co2 224  GLU224     -0.2457
    131  OE2       20.8110   17.5020   79.8220 O.co2 224  GLU224     -0.2457
    132  N         22.6060   23.1720   78.0820 N.3   226  HIS226     -0.1241
    133  CA        22.4350   23.9940   79.2710 C.3   226  HIS226      0.1621
    134  C         22.0810   25.4180   78.8710 C.2   226  HIS226      0.2264
    135  O         22.4360   25.8920   77.7880 O.2   226  HIS226     -0.2867
    136  CB        23.6990   23.9890   80.1260 C.3   226  HIS226      0.0745
    137  CG        23.8450   22.7620   80.9690 C.ar  226  HIS226      0.0817
    138  ND1       23.7320   22.7860   82.3410 N.ar  226  HIS226     -0.2268
    139  CD2       24.0860   21.4730   80.6340 C.ar  226  HIS226      0.1154
    140  CE1       23.9000   21.5650   82.8170 C.ar  226  HIS226      0.1986
    141  NE2       24.1120   20.7490   81.8020 N.ar  226  HIS226     -0.2212
    142  N         26.9730   26.5860   86.3420 N.3   237  ASP237     -0.1239
    143  CA        27.0980   26.1010   84.9700 C.3   237  ASP237      0.1674
    144  C         27.0060   27.2160   83.9360 C.2   237  ASP237      0.2266
    145  O         26.7100   26.9400   82.7680 O.2   237  ASP237     -0.2867
    146  CB        26.0500   25.0280   84.6480 C.3   237  ASP237      0.1410
    147  CG        26.2610   23.7450   85.4160 C.2   237  ASP237      0.3668
    148  OD1       27.4240   23.3180   85.5500 O.co2 237  ASP237     -0.2456
    149  OD2       25.2540   23.1540   85.8590 O.co2 237  ASP237     -0.2456
@<TRIPOS>BOND
     1   123   124    1
     2   107   108    1
     3   126   125    2
     4   124   125    1
     5   124   127    1
     6    89    90    1
     7   108   109    1
     8   108   111    1
     9   109   110    2
    10   127   128    1
    11    90    91    1
    12    90    93    1
    13   113   114    1
    14    91    92    2
    15   111   112    1
    16   115   114    1
    17   115   116    2
    18    93    94    1
    19   135   134    2
    20   114   117    1
    21   128   129    1
    22   132   133    1
    23   134   133    1
    24   117   118    1
    25   129   130   ar
    26   129   131   ar
    27    88    87    1
    28     1     2    1
    29   133   136    1
    30    84    85    1
    31    84    87    1
    32    84    83    1
    33   118   119   ar
    34   118   120   ar
    35   119   121   ar
    36    85    86    2
    37   136   137    1
    38   120   122   ar
    39   121   122   ar
    40     5     2    1
    41     5     6    1
    42     2     3    1
    43   139   137   ar
    44   139   141   ar
    45    64    63    1
    46    64    65    1
    47    63    62    1
    48   137   138   ar
    49    10    11    1
    50     4     3    2
    51    76    75    1
    52    14    11    1
    53    14    15    1
    54   141   140   ar
    55     6     7    1
    56    16    17    1
    57    16    15    1
    58    95    96    1
    59    11    12    1
    60    96    97    1
    61    96    99    1
    62    62    61    1
    63    97    98    2
    64   138   140   ar
    65    17    18    1
    66    61    58    1
    67    58    57    1
    68    58    59    1
    69    75    72    1
    70   145   144    2
    71     7     8   ar
    72     7     9   ar
    73   102   104   ar
    74   102   100   ar
    75   104   105   ar
    76    13    12    2
    77    99   100    1
    78    72    71    1
    79    72    73    1
    80   100   101   ar
    81   105   106    1
    82   105   103   ar
    83    71    68   am
    84    59    60    2
    85   144   143    1
    86   101   103   ar
    87    68    67    1
    88    68    69    2
    89   146   143    1
    90   146   147    1
    91    73    74    2
    92    73    77   am
    93    67    66    1
    94    67    70    1
    95    44    43    1
    96   143   142    1
    97   147   148   ar
    98   147   149   ar
    99    77    78    1
   100    39    40    1
   101    43    40    1
   102    43    45    1
   103    40    41    1
   104    27    25   am
   105    78    79    1
   106    78    81    1
   107    24    25    1
   108    24    23    1
   109    79    80    2
   110    25    26    2
   111    19    20    1
   112    41    42    2
   113    81    82    1
   114    20    23    1
   115    20    21    1
   116    56    55   ar
   117    56    54   ar
   118    55    53   ar
   119    54    52   ar
   120    38    36    1
   121    21    22    2
   122    53    51   ar
   123    52    51   ar
   124    36    37    1
   125    36    35    2
   126    51    50    1
   127    46    47    1
   128    47    50    1
   129    47    48    1
   130    35    34    1
   131    48    49    2
   132    34    33    1
   133    33    32    1
   134    32    29    1
   135    31    30    2
   136    29    30    1
   137    29    28    1
