@<TRIPOS>MOLECULE
tmp/6ncxD00.pdb
 139 132 0 0 0
SMALL
GASTEIGER

@<TRIPOS>ATOM
      1  N        -24.2770   46.9590  -41.0730 N.3   131  ASP131     -0.1239
      2  CA       -24.8300   45.8200  -40.3220 C.3   131  ASP131      0.1674
      3  C        -25.1710   44.6310  -41.2190 C.2   131  ASP131      0.2266
      4  O        -26.1630   43.9280  -41.0220 O.2   131  ASP131     -0.2867
      5  CB       -26.0500   46.2600  -39.5190 C.3   131  ASP131      0.1410
      6  CG       -26.3360   45.3360  -38.3460 C.2   131  ASP131      0.3668
      7  OD1      -27.5100   45.2490  -37.9250 O.co2 131  ASP131     -0.2456
      8  OD2      -25.3910   44.6800  -37.8450 O.co2 131  ASP131     -0.2456
      9  N        -31.9430   38.6820  -45.4710 N.3   278  HIS278     -0.1241
     10  CA       -30.7210   38.9900  -46.1920 C.3   278  HIS278      0.1621
     11  C        -30.3410   37.8210  -47.0890 C.2   278  HIS278      0.2264
     12  O        -30.7160   36.6720  -46.8340 O.2   278  HIS278     -0.2867
     13  CB       -29.5600   39.2640  -45.2210 C.3   278  HIS278      0.0745
     14  CG       -29.4510   40.6930  -44.7910 C.ar  278  HIS278      0.0817
     15  ND1      -28.9750   41.6860  -45.6230 N.ar  278  HIS278     -0.2268
     16  CD2      -29.7420   41.2960  -43.6110 C.ar  278  HIS278      0.1154
     17  CE1      -28.9820   42.8400  -44.9760 C.ar  278  HIS278      0.1986
     18  NE2      -29.4480   42.6320  -43.7570 N.ar  278  HIS278     -0.2212
     19  N        -31.0150   44.4600  -47.7810 N.3   312  HIS312     -0.1241
     20  CA       -31.4570   45.8170  -48.0740 C.3   312  HIS312      0.1621
     21  C        -30.9720   46.1440  -49.4810 C.2   312  HIS312      0.2264
     22  O        -30.1650   47.0480  -49.6560 O.2   312  HIS312     -0.2867
     23  CB       -30.8780   46.8410  -47.0930 C.3   312  HIS312      0.0745
     24  CG       -31.4040   46.7210  -45.6980 C.ar  312  HIS312      0.0817
     25  ND1      -32.6860   47.0970  -45.3500 N.ar  312  HIS312     -0.2268
     26  CD2      -30.8130   46.2910  -44.5550 C.ar  312  HIS312      0.1154
     27  CE1      -32.8630   46.8890  -44.0550 C.ar  312  HIS312      0.1986
     28  NE2      -31.7460   46.3950  -43.5500 N.ar  312  HIS312     -0.2212
     29  N        -28.7250   51.2920  -46.4280 N.3   337  ARG337     -0.1245
     30  CA       -29.1070   51.0050  -45.0450 C.3   337  ARG337      0.1563
     31  C        -28.4480   51.9960  -44.1020 C.2   337  ARG337      0.2260
     32  O        -27.2180   52.0300  -44.0040 O.2   337  ARG337     -0.2867
     33  CB       -28.7340   49.5820  -44.6210 C.3   337  ARG337      0.0307
     34  CG       -29.1950   49.2700  -43.1990 C.3   337  ARG337      0.0489
     35  CD       -28.2070   48.3710  -42.4380 C.3   337  ARG337      0.2205
     36  NE       -28.4830   48.4500  -41.0080 N.pl3 337  ARG337     -0.0865
     37  CZ       -28.0490   49.4330  -40.2160 C.cat 337  ARG337      0.5346
     38  NH1      -27.3000   50.4070  -40.7100 N.pl3 337  ARG337      0.1354
     39  NH2      -28.3740   49.4470  -38.9340 N.pl3 337  ARG337      0.1354
     40  N        -33.7870   52.4680  -46.9110 N.3   377  ASN377     -0.1225
     41  CA       -34.0790   51.9620  -45.5740 C.3   377  ASN377      0.1785
     42  C        -33.2940   52.7240  -44.5040 C.2   377  ASN377      0.2597
     43  O        -32.0580   52.7250  -44.5000 O.2   377  ASN377     -0.2718
     44  CB       -33.7620   50.4660  -45.4950 C.3   377  ASN377      0.1169
     45  CG       -33.8230   49.9370  -44.0710 C.2   377  ASN377      0.2627
     46  OD1      -34.8670   49.4570  -43.6090 O.2   377  ASN377     -0.2716
     47  ND2      -32.6980   50.0280  -43.3620 N.am  377  ASN377     -0.0877
     48  N        -34.0280   53.3720  -43.6010 N.am  378  GLU378     -0.1979
     49  CA       -33.4610   54.0630  -42.4360 C.3   378  GLU378      0.1602
     50  C        -32.4150   55.1190  -42.8130 C.2   378  GLU378      0.2287
     51  O        -31.4310   55.3230  -42.0940 O.2   378  GLU378     -0.2864
     52  CB       -32.8720   53.0640  -41.4380 C.3   378  GLU378      0.0415
     53  CG       -33.8890   52.1420  -40.8000 C.3   378  GLU378      0.1163
     54  CD       -33.4550   51.6960  -39.4110 C.2   378  GLU378      0.3649
     55  OE1      -32.2480   51.7910  -39.1090 O.co2 378  GLU378     -0.2457
     56  OE2      -34.3190   51.2710  -38.6110 O.co2 378  GLU378     -0.2457
     57  N        -39.7450   50.8940  -38.8580 N.3   428  ASN428     -0.1240
     58  CA       -39.0120   49.8860  -38.0990 C.3   428  ASN428      0.1653
     59  C        -39.0220   50.2580  -36.6120 C.2   428  ASN428      0.2266
     60  O        -38.6210   51.3670  -36.2440 O.2   428  ASN428     -0.2867
     61  CB       -37.5560   49.7850  -38.5820 C.3   428  ASN428      0.1155
     62  CG       -37.4280   49.5460  -40.0820 C.2   428  ASN428      0.2627
     63  OD1      -38.3570   49.0780  -40.7380 O.2   428  ASN428     -0.2716
     64  ND2      -36.2510   49.8490  -40.6260 N.am  428  ASN428     -0.0877
     65  N        -38.3490   48.6710  -32.4090 N.3   430  TYR430     -0.1241
     66  CA       -37.8150   47.6030  -31.5600 C.3   430  TYR430      0.1605
     67  C        -38.1480   47.8080  -30.0830 C.2   430  TYR430      0.2264
     68  O        -37.2540   47.8040  -29.2260 O.2   430  TYR430     -0.2867
     69  CB       -36.3100   47.4740  -31.7850 C.3   430  TYR430      0.0534
     70  CG       -35.9790   46.8780  -33.1390 C.ar  430  TYR430     -0.0201
     71  CD1      -35.9030   47.6710  -34.2700 C.ar  430  TYR430     -0.0009
     72  CD2      -35.7360   45.5100  -33.2800 C.ar  430  TYR430     -0.0009
     73  CE1      -35.6060   47.1240  -35.5030 C.ar  430  TYR430      0.0417
     74  CE2      -35.4330   44.9460  -34.5130 C.ar  430  TYR430      0.0417
     75  CZ       -35.3730   45.7610  -35.6170 C.ar  430  TYR430      0.1957
     76  OH       -35.0540   45.2210  -36.8390 O.3   430  TYR430     -0.2866
     77  N        -34.5520   47.0430  -28.0580 N.3   434  TYR434     -0.1241
     78  CA       -33.7250   48.2200  -27.8060 C.3   434  TYR434      0.1605
     79  C        -34.3340   49.1570  -26.7580 C.2   434  TYR434      0.2264
     80  O        -33.5810   49.8720  -26.0860 O.2   434  TYR434     -0.2867
     81  CB       -33.4630   48.9810  -29.1130 C.3   434  TYR434      0.0534
     82  CG       -32.5150   48.3030  -30.0850 C.ar  434  TYR434     -0.0201
     83  CD1      -31.2920   47.7750  -29.6640 C.ar  434  TYR434     -0.0009
     84  CD2      -32.8470   48.1980  -31.4420 C.ar  434  TYR434     -0.0009
     85  CE1      -30.4280   47.1380  -30.5670 C.ar  434  TYR434      0.0417
     86  CE2      -32.0040   47.5740  -32.3540 C.ar  434  TYR434      0.0417
     87  CZ       -30.7930   47.0430  -31.9150 C.ar  434  TYR434      0.1957
     88  OH       -29.9640   46.4380  -32.8380 O.3   434  TYR434     -0.2866
     89  N        -40.0530   46.3220  -39.8110 N.3   465  GLU465     -0.1245
     90  CA       -39.1030   45.5980  -38.9750 C.3   465  GLU465      0.1567
     91  C        -39.5700   45.6060  -37.5290 C.2   465  GLU465      0.2260
     92  O        -39.9410   46.6520  -37.0020 O.2   465  GLU465     -0.2867
     93  CB       -37.6920   46.2060  -39.0750 C.3   465  GLU465      0.0388
     94  CG       -36.9990   46.0470  -40.4200 C.3   465  GLU465      0.1160
     95  CD       -35.5910   46.5710  -40.4000 C.2   465  GLU465      0.3649
     96  OE1      -35.0140   46.7830  -41.4950 O.co2 465  GLU465     -0.2457
     97  OE2      -35.0610   46.7810  -39.2840 O.co2 465  GLU465     -0.2457
     98  N        -38.0140   41.1710  -38.4030 N.3   510  TRP510     -0.1241
     99  CA       -36.5590   41.1940  -38.5120 C.3   510  TRP510      0.1605
    100  C        -35.9910   40.2370  -37.4710 C.2   510  TRP510      0.2264
    101  O        -36.1710   40.4540  -36.2650 O.2   510  TRP510     -0.2867
    102  CB       -35.9780   42.5910  -38.3050 C.3   510  TRP510      0.0550
    103  CG       -34.4700   42.6030  -38.4600 C.ar  510  TRP510      0.0003
    104  CD1      -33.5310   42.1810  -37.5370 C.ar  510  TRP510      0.0946
    105  CD2      -33.7290   43.0410  -39.6150 C.ar  510  TRP510      0.0152
    106  NE1      -32.2680   42.3410  -38.0500 N.ar  510  TRP510     -0.2442
    107  CE2      -32.3580   42.8640  -39.3220 C.ar  510  TRP510      0.0810
    108  CE3      -34.0950   43.5710  -40.8670 C.ar  510  TRP510      0.0012
    109  CZ2      -31.3430   43.1980  -40.2450 C.ar  510  TRP510      0.0191
    110  CZ3      -33.0990   43.8960  -41.7730 C.ar  510  TRP510      0.0001
    111  CH2      -31.7370   43.7020  -41.4610 C.ar  510  TRP510      0.0015
    112  N        -22.8570   43.6140  -31.6690 N.3   525  ARG525     -0.1245
    113  CA       -23.2290   42.4680  -32.4930 C.3   525  ARG525      0.1563
    114  C        -22.4640   41.2620  -31.9790 C.2   525  ARG525      0.2260
    115  O        -21.3310   41.0040  -32.4070 O.2   525  ARG525     -0.2867
    116  CB       -22.9380   42.7100  -33.9710 C.3   525  ARG525      0.0307
    117  CG       -23.7930   43.7660  -34.6040 C.3   525  ARG525      0.0489
    118  CD       -25.2360   43.3420  -34.6230 C.3   525  ARG525      0.2205
    119  NE       -26.1190   44.3370  -35.2320 N.pl3 525  ARG525     -0.0865
    120  CZ       -26.8700   45.2010  -34.5520 C.cat 525  ARG525      0.5346
    121  NH1      -26.8580   45.2060  -33.2220 N.pl3 525  ARG525      0.1354
    122  NH2      -27.6570   46.0440  -35.2030 N.pl3 525  ARG525      0.1354
    123  N        -25.5190   39.7020  -36.8420 N.3   530  ASN530     -0.1240
    124  CA       -26.8350   40.1770  -36.4260 C.3   530  ASN530      0.1653
    125  C        -27.6240   38.9570  -35.9450 C.2   530  ASN530      0.2266
    126  O        -27.8160   37.9930  -36.7010 O.2   530  ASN530     -0.2867
    127  CB       -27.5280   40.9140  -37.5780 C.3   530  ASN530      0.1155
    128  CG       -28.7750   41.6720  -37.1280 C.2   530  ASN530      0.2627
    129  OD1      -29.8150   41.0640  -36.8470 O.2   530  ASN530     -0.2716
    130  ND2      -28.6780   42.9970  -37.0580 N.am  530  ASN530     -0.0877
    131  N        -30.7300   38.4040  -34.6890 N.3   532  LYS532     -0.1245
    132  CA       -32.1730   38.5050  -34.5790 C.3   532  LYS532      0.1561
    133  C        -32.9000   37.5190  -35.4910 C.2   532  LYS532      0.2260
    134  O        -34.1160   37.6440  -35.6820 O.2   532  LYS532     -0.2867
    135  CB       -32.5930   39.9540  -34.8490 C.3   532  LYS532      0.0271
    136  CG       -31.9540   40.9490  -33.8210 C.3   532  LYS532      0.0035
    137  CD       -32.4950   42.3400  -33.9230 C.3   532  LYS532      0.0206
    138  CE       -31.7810   43.3020  -32.9560 C.3   532  LYS532      0.1093
    139  NZ       -30.3720   43.6820  -33.3110 N.3   532  LYS532     -0.1314
@<TRIPOS>BOND
     1    22    21    2
     2    21    20    1
     3    20    19    1
     4    20    23    1
     5    23    24    1
     6    11    12    2
     7    11    10    1
     8    40    41    1
     9    29    30    1
    10    10     9    1
    11    10    13    1
    12    24    25   ar
    13    24    26   ar
    14    15    17   ar
    15    15    14   ar
    16    41    44    1
    17    41    42    1
    18    44    45    1
    19    25    27   ar
    20    13    14    1
    21    30    33    1
    22    30    31    1
    23    17    18   ar
    24    14    16   ar
    25    33    34    1
    26    26    28   ar
    27    42    43    2
    28    42    48   am
    29    31    32    2
    30    45    46    2
    31    45    47   am
    32    27    28   ar
    33    18    16   ar
    34    48    49    1
    35    34    35    1
    36    50    49    1
    37    50    51    2
    38    35    36    1
    39    49    52    1
    40   110   111   ar
    41   110   108   ar
    42    96    95   ar
    43   111   109   ar
    44    52    53    1
    45     3     4    2
    46     3     2    1
    47     1     2    1
    48    36    37    2
    49   108   105   ar
    50    53    54    1
    51    63    62    2
    52    38    37    1
    53    64    62   am
    54    94    95    1
    55    94    93    1
    56    95    97   ar
    57     2     5    1
    58   109   107   ar
    59    37    39    1
    60    62    61    1
    61    89    90    1
    62   105   107   ar
    63   105   103   ar
    64     5     6    1
    65    54    55   ar
    66    54    56   ar
    67   107   106   ar
    68    93    90    1
    69    90    91    1
    70    57    58    1
    71    61    58    1
    72    99    98    1
    73    99   102    1
    74    99   100    1
    75   103   102    1
    76   103   104   ar
    77     6     7   ar
    78     6     8   ar
    79    58    59    1
    80   106   104   ar
    81   127   128    1
    82   127   124    1
    83    91    92    2
    84   100   101    2
    85   128   130   am
    86   128   129    2
    87   123   124    1
    88    76    75    1
    89   126   125    2
    90    59    60    2
    91   124   125    1
    92   134   133    2
    93    75    73   ar
    94    75    74   ar
    95    73    71   ar
    96   133   132    1
    97   119   118    1
    98   119   120    2
    99   122   120    1
   100   135   132    1
   101   135   136    1
   102   131   132    1
   103   118   117    1
   104   117   116    1
   105   120   121    1
   106    74    72   ar
   107    71    70   ar
   108   116   113    1
   109   137   136    1
   110   137   138    1
   111   139   138    1
   112    72    70   ar
   113    70    69    1
   114    88    87    1
   115   113   114    1
   116   113   112    1
   117    65    66    1
   118   115   114    2
   119    86    87   ar
   120    86    84   ar
   121    87    85   ar
   122    69    66    1
   123    66    67    1
   124    84    82   ar
   125    85    83   ar
   126    82    83   ar
   127    82    81    1
   128    67    68    2
   129    81    78    1
   130    77    78    1
   131    78    79    1
   132    79    80    2
