@<TRIPOS>MOLECULE
tmp/6nczF00.pdb
 199 198 0 0 0
SMALL
GASTEIGER

@<TRIPOS>ATOM
      1  N         30.1160  108.9440  -22.4650 N.3   177  ASP177     -0.1225
      2  CA        30.1420  108.9790  -21.0060 C.3   177  ASP177      0.1805
      3  C         28.8030  109.4130  -20.4190 C.2   177  ASP177      0.2597
      4  O         28.7680  110.0380  -19.3580 O.2   177  ASP177     -0.2718
      5  CB        31.2650  109.8830  -20.4900 C.3   177  ASP177      0.1424
      6  CG        31.6490  109.5830  -19.0310 C.2   177  ASP177      0.3668
      7  OD1       31.8220  108.3990  -18.6970 O.co2 177  ASP177     -0.2456
      8  OD2       31.7740  110.5260  -18.2200 O.co2 177  ASP177     -0.2456
      9  N         27.6880  109.0800  -21.0770 N.am  178  TRP178     -0.1976
     10  CA        26.3830  109.3310  -20.4760 C.3   178  TRP178      0.1640
     11  C         25.4650  108.1340  -20.7180 C.2   178  TRP178      0.2290
     12  O         25.8100  107.1820  -21.4210 O.2   178  TRP178     -0.2864
     13  CB        25.7590  110.6430  -20.9790 C.3   178  TRP178      0.0576
     14  CG        25.3850  110.6300  -22.4240 C.ar  178  TRP178      0.0006
     15  CD1       24.2370  110.1330  -22.9680 C.ar  178  TRP178      0.0946
     16  CD2       26.1740  111.1160  -23.5140 C.ar  178  TRP178      0.0152
     17  NE1       24.2590  110.2810  -24.3430 N.ar  178  TRP178     -0.2442
     18  CE2       25.4330  110.8880  -24.7030 C.ar  178  TRP178      0.0810
     19  CE3       27.4370  111.7220  -23.6060 C.ar  178  TRP178      0.0012
     20  CZ2       25.9080  111.2540  -25.9670 C.ar  178  TRP178      0.0191
     21  CZ3       27.9090  112.0940  -24.8610 C.ar  178  TRP178      0.0001
     22  CH2       27.1440  111.8600  -26.0260 C.ar  178  TRP178      0.0015
     23  N         23.8530  118.1240  -18.0750 N.3   309  HIS309     -0.1241
     24  CA        23.2730  117.0510  -18.8660 C.3   309  HIS309      0.1621
     25  C         21.7540  117.0530  -18.7070 C.2   309  HIS309      0.2264
     26  O         21.2080  117.6150  -17.7530 O.2   309  HIS309     -0.2867
     27  CB        23.8280  115.6980  -18.4220 C.3   309  HIS309      0.0745
     28  CG        24.8190  115.0920  -19.3620 C.ar  309  HIS309      0.0817
     29  ND1       24.5060  114.7500  -20.6580 N.ar  309  HIS309     -0.2268
     30  CD2       26.1090  114.7150  -19.1700 C.ar  309  HIS309      0.1154
     31  CE1       25.5660  114.2070  -21.2340 C.ar  309  HIS309      0.1986
     32  NE2       26.5530  114.1810  -20.3540 N.ar  309  HIS309     -0.2212
     33  N         25.4480  116.7170  -24.1430 N.3   343  HIS343     -0.1241
     34  CA        26.3760  116.8570  -25.2620 C.3   343  HIS343      0.1621
     35  C         25.5490  116.7470  -26.5440 C.2   343  HIS343      0.2264
     36  O         26.0690  116.3700  -27.5920 O.2   343  HIS343     -0.2867
     37  CB        27.4420  115.7550  -25.2880 C.3   343  HIS343      0.0745
     38  CG        28.5730  115.9450  -24.3240 C.ar  343  HIS343      0.0817
     39  ND1       29.5530  116.9010  -24.4950 N.ar  343  HIS343     -0.2268
     40  CD2       28.9120  115.2530  -23.2060 C.ar  343  HIS343      0.1154
     41  CE1       30.4360  116.8050  -23.5130 C.ar  343  HIS343      0.1986
     42  NE2       30.0670  115.8150  -22.7150 N.ar  343  HIS343     -0.2212
     43  N         31.0740  113.0690  -30.6870 N.3   368  TYR368     -0.1227
     44  CA        31.6660  112.8600  -29.3690 C.3   368  TYR368      0.1736
     45  C         32.5810  111.6520  -29.4510 C.2   368  TYR368      0.2595
     46  O         32.1430  110.5810  -29.8810 O.2   368  TYR368     -0.2718
     47  CB        30.5410  112.6380  -28.3470 C.3   368  TYR368      0.0548
     48  CG        30.9320  112.4230  -26.9070 C.ar  368  TYR368     -0.0200
     49  CD1       31.1640  111.1440  -26.4090 C.ar  368  TYR368     -0.0009
     50  CD2       31.0030  113.4890  -26.0240 C.ar  368  TYR368     -0.0009
     51  CE1       31.4910  110.9410  -25.0660 C.ar  368  TYR368      0.0417
     52  CE2       31.3320  113.3000  -24.6980 C.ar  368  TYR368      0.0417
     53  CZ        31.5690  112.0280  -24.2210 C.ar  368  TYR368      0.1957
     54  OH        31.8770  111.8580  -22.8900 O.3   368  TYR368     -0.2866
     55  N         33.8480  111.8290  -29.0720 N.am  369  TRP369     -0.1976
     56  CA        34.9020  110.7780  -29.0630 C.3   369  TRP369      0.1640
     57  C         35.0840  110.2030  -30.4690 C.2   369  TRP369      0.2290
     58  O         35.2600  110.9780  -31.4230 O.2   369  TRP369     -0.2864
     59  CB        34.5970  109.7510  -27.9820 C.3   369  TRP369      0.0576
     60  CG        34.7300  110.2770  -26.5950 C.ar  369  TRP369      0.0006
     61  CD1       35.1310  111.5270  -26.2270 C.ar  369  TRP369      0.0946
     62  CD2       34.4430  109.5730  -25.3770 C.ar  369  TRP369      0.0152
     63  NE1       35.1130  111.6480  -24.8530 N.ar  369  TRP369     -0.2442
     64  CE2       34.6890  110.4630  -24.3100 C.ar  369  TRP369      0.0810
     65  CE3       33.9770  108.2900  -25.0900 C.ar  369  TRP369      0.0012
     66  CZ2       34.5070  110.1000  -22.9780 C.ar  369  TRP369      0.0191
     67  CZ3       33.7760  107.9390  -23.7650 C.ar  369  TRP369      0.0001
     68  CH2       34.0500  108.8380  -22.7250 C.ar  369  TRP369      0.0015
     69  N         32.8370  117.3440  -29.4830 N.3   406  ASN406     -0.1225
     70  CA        33.4660  117.3190  -28.1680 C.3   406  ASN406      0.1785
     71  C         34.5410  116.2400  -28.1220 C.2   406  ASN406      0.2597
     72  O         34.2490  115.0660  -28.3630 O.2   406  ASN406     -0.2718
     73  CB        32.4050  117.0930  -27.0770 C.3   406  ASN406      0.1169
     74  CG        33.0120  117.0070  -25.6730 C.2   406  ASN406      0.2627
     75  OD1       33.1950  118.0140  -25.0160 O.2   406  ASN406     -0.2716
     76  ND2       33.3090  115.7980  -25.2170 N.am  406  ASN406     -0.0877
     77  N         35.7860  116.6510  -27.8540 N.am  407  GLU407     -0.1979
     78  CA        36.8890  115.7490  -27.4750 C.3   407  GLU407      0.1602
     79  C         37.1810  114.6820  -28.5350 C.2   407  GLU407      0.2287
     80  O         37.0830  113.4760  -28.2860 O.2   407  GLU407     -0.2864
     81  CB        36.6100  115.0900  -26.1170 C.3   407  GLU407      0.0415
     82  CG        37.8610  114.6800  -25.3500 C.3   407  GLU407      0.1163
     83  CD        38.7030  115.8690  -24.9220 C.2   407  GLU407      0.3649
     84  OE1       38.1270  116.9190  -24.5490 O.co2 407  GLU407     -0.2457
     85  OE2       39.9440  115.7470  -24.9430 O.co2 407  GLU407     -0.2457
     86  N         38.4630  121.2830  -22.8250 N.3   461  ASN461     -0.1225
     87  CA        38.3150  120.4570  -21.6390 C.3   461  ASN461      0.1785
     88  C         39.7000  120.1940  -21.0500 C.2   461  ASN461      0.2597
     89  O         40.6040  119.7560  -21.7640 O.2   461  ASN461     -0.2718
     90  CB        37.6420  119.1290  -21.9750 C.3   461  ASN461      0.1169
     91  CG        36.2870  119.2980  -22.6410 C.2   461  ASN461      0.2627
     92  OD1       35.6400  120.3390  -22.5250 O.2   461  ASN461     -0.2716
     93  ND2       35.8470  118.2540  -23.3410 N.am  461  ASN461     -0.0877
     94  N         39.8760  120.4640  -19.7580 N.am  462  GLU462     -0.1965
     95  CA        41.0780  119.9950  -19.0800 C.3   462  GLU462      0.1733
     96  C         40.7120  119.5260  -17.6840 C.2   462  GLU462      0.2616
     97  O         39.7690  120.0310  -17.0620 O.2   462  GLU462     -0.2715
     98  CB        42.1830  121.0630  -18.9940 C.3   462  GLU462      0.0429
     99  CG        41.7380  122.3970  -18.4260 C.3   462  GLU462      0.1163
    100  CD        41.6960  122.4550  -16.8800 C.2   462  GLU462      0.3649
    101  OE1       40.9420  123.3030  -16.3790 O.co2 462  GLU462     -0.2457
    102  OE2       42.4120  121.6900  -16.1760 O.co2 462  GLU462     -0.2457
    103  N         41.4940  118.5770  -17.1810 N.am  463  TYR463     -0.1974
    104  CA        41.1890  117.9410  -15.9080 C.3   463  TYR463      0.1639
    105  C         42.4240  117.8550  -15.0110 C.2   463  TYR463      0.2290
    106  O         42.6830  116.8250  -14.3810 O.2   463  TYR463     -0.2864
    107  CB        40.5630  116.5670  -16.1570 C.3   463  TYR463      0.0560
    108  CG        39.0810  116.6430  -16.4810 C.ar  463  TYR463     -0.0198
    109  CD1       38.6290  116.6010  -17.7940 C.ar  463  TYR463     -0.0009
    110  CD2       38.1420  116.7660  -15.4670 C.ar  463  TYR463     -0.0009
    111  CE1       37.2870  116.6620  -18.0890 C.ar  463  TYR463      0.0417
    112  CE2       36.7990  116.8310  -15.7400 C.ar  463  TYR463      0.0417
    113  CZ        36.3680  116.7790  -17.0570 C.ar  463  TYR463      0.1957
    114  OH        35.0130  116.8430  -17.3350 O.3   463  TYR463     -0.2866
    115  N         42.3510  113.7150  -13.8320 N.3   467  TYR467     -0.1241
    116  CA        42.9100  112.7750  -14.8070 C.3   467  TYR467      0.1605
    117  C         44.3720  113.0830  -15.0940 C.2   467  TYR467      0.2264
    118  O         45.1610  112.1700  -15.3640 O.2   467  TYR467     -0.2867
    119  CB        42.1010  112.7950  -16.1130 C.3   467  TYR467      0.0534
    120  CG        40.6830  112.2850  -15.9790 C.ar  467  TYR467     -0.0201
    121  CD1       40.4250  110.9940  -15.5300 C.ar  467  TYR467     -0.0009
    122  CD2       39.6040  113.0890  -16.3020 C.ar  467  TYR467     -0.0009
    123  CE1       39.1300  110.5220  -15.4040 C.ar  467  TYR467      0.0417
    124  CE2       38.2970  112.6270  -16.1800 C.ar  467  TYR467      0.0417
    125  CZ        38.0670  111.3450  -15.7340 C.ar  467  TYR467      0.1957
    126  OH        36.7730  110.8860  -15.6190 O.3   467  TYR467     -0.2866
    127  N         35.1950  122.2200  -19.6700 N.3   491  GLU491     -0.1245
    128  CA        35.1100  121.2040  -18.6320 C.3   491  GLU491      0.1567
    129  C         36.3470  121.2840  -17.7510 C.2   491  GLU491      0.2260
    130  O         37.4360  121.5880  -18.2410 O.2   491  GLU491     -0.2867
    131  CB        34.9880  119.7890  -19.2070 C.3   491  GLU491      0.0388
    132  CG        33.6570  119.4920  -19.8650 C.3   491  GLU491      0.1160
    133  CD        33.5900  118.1100  -20.4310 C.2   491  GLU491      0.3649
    134  OE1       34.1210  117.1870  -19.7780 O.co2 491  GLU491     -0.2457
    135  OE2       33.0040  117.9520  -21.5220 O.co2 491  GLU491     -0.2457
    136  N         32.4110  121.0540  -15.0300 N.3   536  TRP536     -0.1241
    137  CA        31.7020  119.8070  -15.2780 C.3   536  TRP536      0.1605
    138  C         31.5140  119.1630  -13.9130 C.2   536  TRP536      0.2264
    139  O         32.4740  118.6400  -13.3430 O.2   536  TRP536     -0.2867
    140  CB        32.5160  118.9310  -16.2300 C.3   536  TRP536      0.0550
    141  CG        31.8600  117.6900  -16.7600 C.ar  536  TRP536      0.0003
    142  CD1       32.1040  116.4060  -16.3660 C.ar  536  TRP536      0.0946
    143  CD2       30.9080  117.6010  -17.8320 C.ar  536  TRP536      0.0152
    144  NE1       31.3500  115.5250  -17.1070 N.ar  536  TRP536     -0.2442
    145  CE2       30.6070  116.2310  -18.0140 C.ar  536  TRP536      0.0810
    146  CE3       30.2770  118.5420  -18.6500 C.ar  536  TRP536      0.0012
    147  CZ2       29.6930  115.7840  -18.9700 C.ar  536  TRP536      0.0191
    148  CZ3       29.3640  118.0940  -19.6110 C.ar  536  TRP536      0.0001
    149  CH2       29.0870  116.7300  -19.7610 C.ar  536  TRP536      0.0015
    150  N         24.9100  112.5640  -12.8910 N.3   541  PHE541     -0.1241
    151  CA        24.0590  111.9500  -13.9000 C.3   541  PHE541      0.1605
    152  C         24.4310  110.4870  -14.0940 C.2   541  PHE541      0.2264
    153  O         25.5800  110.0910  -13.8750 O.2   541  PHE541     -0.2867
    154  CB        24.1350  112.7000  -15.2420 C.3   541  PHE541      0.0534
    155  CG        25.5200  112.7880  -15.8380 C.ar  541  PHE541     -0.0203
    156  CD1       26.3900  113.8120  -15.4630 C.ar  541  PHE541     -0.0042
    157  CD2       25.9420  111.8650  -16.8100 C.ar  541  PHE541     -0.0042
    158  CE1       27.6760  113.9170  -16.0340 C.ar  541  PHE541     -0.0003
    159  CE2       27.2430  111.9500  -17.3850 C.ar  541  PHE541     -0.0003
    160  CZ        28.1010  112.9840  -16.9960 C.ar  541  PHE541     -0.0000
    161  N         29.8170  103.9930  -17.3830 N.3   545  ARG545     -0.1231
    162  CA        31.2480  103.7120  -17.3090 C.3   545  ARG545      0.1694
    163  C         31.8020  103.7360  -15.8870 C.2   545  ARG545      0.2591
    164  O         32.9710  103.3980  -15.6950 O.2   545  ARG545     -0.2718
    165  CB        32.0290  104.7020  -18.1840 C.3   545  ARG545      0.0321
    166  CG        31.6780  104.5960  -19.6700 C.3   545  ARG545      0.0489
    167  CD        32.3240  105.7090  -20.5160 C.3   545  ARG545      0.2205
    168  NE        33.7660  105.5350  -20.6390 N.pl3 545  ARG545     -0.0865
    169  CZ        34.6680  106.3490  -20.1010 C.cat 545  ARG545      0.5346
    170  NH1       34.2840  107.4070  -19.3840 N.pl3 545  ARG545      0.1354
    171  NH2       35.9630  106.1010  -20.2730 N.pl3 545  ARG545      0.1354
    172  N         30.9920  104.0930  -14.8860 N.am  546  ARG546     -0.1980
    173  CA        31.4750  104.3680  -13.5340 C.3   546  ARG546      0.1597
    174  C         30.9440  103.3010  -12.5720 C.2   546  ARG546      0.2287
    175  O         29.8400  103.4160  -12.0370 O.2   546  ARG546     -0.2864
    176  CB        31.0630  105.7730  -13.1070 C.3   546  ARG546      0.0334
    177  CG        31.2380  106.8110  -14.2070 C.3   546  ARG546      0.0492
    178  CD        32.6840  106.8600  -14.7110 C.3   546  ARG546      0.2205
    179  NE        32.8880  107.9640  -15.6480 N.pl3 546  ARG546     -0.0865
    180  CZ        34.0320  108.6280  -15.8080 C.cat 546  ARG546      0.5346
    181  NH1       35.1000  108.3250  -15.0890 N.pl3 546  ARG546      0.1354
    182  NH2       34.1010  109.6150  -16.6920 N.pl3 546  ARG546      0.1354
    183  N         28.1960  109.4090  -12.9890 N.3   555  ASN555     -0.1240
    184  CA        29.3150  110.3380  -13.0080 C.3   555  ASN555      0.1653
    185  C         29.1210  111.3040  -11.8450 C.2   555  ASN555      0.2266
    186  O         28.1210  112.0340  -11.7970 O.2   555  ASN555     -0.2867
    187  CB        29.3920  111.0700  -14.3450 C.3   555  ASN555      0.1155
    188  CG        30.5810  112.0030  -14.4280 C.2   555  ASN555      0.2627
    189  OD1       30.8370  112.7700  -13.5170 O.2   555  ASN555     -0.2716
    190  ND2       31.3020  111.9510  -15.5300 N.am  555  ASN555     -0.0877
    191  N         30.7750  113.9500  -10.8310 N.3   557  LYS557     -0.1245
    192  CA        31.3870  115.2700  -10.9020 C.3   557  LYS557      0.1561
    193  C         30.3910  116.3930  -10.6620 C.2   557  LYS557      0.2260
    194  O         30.7850  117.5660  -10.6690 O.2   557  LYS557     -0.2867
    195  CB        32.0860  115.4420  -12.2520 C.3   557  LYS557      0.0271
    196  CG        33.2280  114.4310  -12.4430 C.3   557  LYS557      0.0035
    197  CD        34.2030  114.8700  -13.5200 C.3   557  LYS557      0.0206
    198  CE        35.3070  113.8410  -13.6670 C.3   557  LYS557      0.1093
    199  NZ        34.7230  112.4810  -13.8910 N.3   557  LYS557     -0.1314
@<TRIPOS>BOND
     1    58    57    2
     2    43    44    1
     3    57    56    1
     4    46    45    2
     5    69    70    1
     6    45    44    1
     7    45    55   am
     8    44    47    1
     9    55    56    1
    10    56    59    1
    11    79    80    2
    12    79    78    1
    13    72    71    2
    14    47    48    1
    15    70    71    1
    16    70    73    1
    17    71    77   am
    18    59    60    1
    19    77    78    1
    20    36    35    2
    21    78    81    1
    22    73    74    1
    23    48    49   ar
    24    48    50   ar
    25    60    61   ar
    26    60    62   ar
    27    35    34    1
    28    49    51   ar
    29    61    63   ar
    30    81    82    1
    31    22    20   ar
    32    22    21   ar
    33    50    52   ar
    34    20    18   ar
    35    74    76   am
    36    74    75    2
    37    62    65   ar
    38    62    64   ar
    39    82    83    1
    40    37    34    1
    41    37    38    1
    42    34    33    1
    43    65    67   ar
    44    51    53   ar
    45    85    83   ar
    46    83    84   ar
    47    21    19   ar
    48    63    64   ar
    49    18    17   ar
    50    18    16   ar
    51    52    53   ar
    52    39    38   ar
    53    39    41   ar
    54    17    15   ar
    55    38    40   ar
    56    64    66   ar
    57    53    54    1
    58    67    68   ar
    59    19    16   ar
    60    16    14   ar
    61    41    42   ar
    62    93    91   am
    63    40    42   ar
    64    66    68   ar
    65    15    14   ar
    66    86    87    1
    67    91    92    2
    68    91    90    1
    69     1     2    1
    70    14    13    1
    71    90    87    1
    72    89    88    2
    73    87    88    1
    74   135   133   ar
    75    12    11    2
    76    31    29   ar
    77    31    32   ar
    78     9    10    1
    79     9     3   am
    80    88    94   am
    81     2     5    1
    82     2     3    1
    83    13    10    1
    84    11    10    1
    85    29    28   ar
    86   168   167    1
    87   168   169    2
    88   167   166    1
    89     5     6    1
    90   133   132    1
    91   133   134   ar
    92     3     4    2
    93    32    30   ar
    94   171   169    1
    95   169   170    1
    96   132   131    1
    97   149   148   ar
    98   149   147   ar
    99    94    95    1
   100   166   165    1
   101   127   128    1
   102   148   146   ar
   103    28    30   ar
   104    28    27    1
   105   131   128    1
   106    95    98    1
   107    95    96    1
   108     6     7   ar
   109     6     8   ar
   110    98    99    1
   111   147   145   ar
   112    24    25    1
   113    24    27    1
   114    24    23    1
   115    25    26    2
   116   146   143   ar
   117   128   129    1
   118    99   100    1
   119   130   129    2
   120   165   162    1
   121   111   109   ar
   122   111   113   ar
   123   145   143   ar
   124   145   144   ar
   125   143   141   ar
   126   109   108   ar
   127    96   103   am
   128    96    97    2
   129   159   160   ar
   130   159   157   ar
   131   161   162    1
   132   114   113    1
   133   162   163    1
   134   103   104    1
   135   144   142   ar
   136   113   112   ar
   137   160   158   ar
   138   100   101   ar
   139   100   102   ar
   140   157   155   ar
   141   141   142   ar
   142   141   140    1
   143   182   180    1
   144   108   107    1
   145   108   110   ar
   146   122   124   ar
   147   122   120   ar
   148   140   137    1
   149   124   125   ar
   150   107   104    1
   151   119   120    1
   152   119   116    1
   153   158   156   ar
   154   120   121   ar
   155   104   105    1
   156   163   164    2
   157   163   172   am
   158   155   156   ar
   159   155   154    1
   160   180   179    2
   161   180   181    1
   162   112   110   ar
   163   125   126    1
   164   125   123   ar
   165   179   178    1
   166   190   188   am
   167   121   123   ar
   168   118   117    2
   169   137   136    1
   170   137   138    1
   171   154   151    1
   172   117   116    1
   173   105   106    2
   174   172   173    1
   175   116   115    1
   176   178   177    1
   177   188   187    1
   178   188   189    2
   179   187   184    1
   180   177   176    1
   181   152   151    1
   182   152   153    2
   183   138   139    2
   184   151   150    1
   185   199   198    1
   186   198   197    1
   187   173   176    1
   188   173   174    1
   189   197   196    1
   190   184   183    1
   191   184   185    1
   192   174   175    2
   193   196   195    1
   194   195   192    1
   195   185   186    2
   196   192   191    1
   197   192   193    1
   198   194   193    2
