@<TRIPOS>MOLECULE
tmp/6neeB00.pdb
 93 87 0 0 0
SMALL
GASTEIGER

@<TRIPOS>ATOM
      1  N        -94.9180   37.4190  -46.4170 N.3    11  ASN11      -0.1240
      2  CA       -94.2510   38.3210  -45.4590 C.3    11  ASN11       0.1653
      3  C        -95.0980   38.3930  -44.1910 C.2    11  ASN11       0.2266
      4  O        -96.1380   39.0570  -44.1630 O.2    11  ASN11      -0.2867
      5  CB       -94.0450   39.7050  -46.0730 C.3    11  ASN11       0.1155
      6  CG       -93.5010   40.7420  -45.0650 C.2    11  ASN11       0.2627
      7  OD1      -93.0200   40.4070  -43.9790 O.2    11  ASN11      -0.2716
      8  ND2      -93.5280   42.0040  -45.4680 N.am   11  ASN11      -0.0877
      9  N        -94.5010   39.8560  -41.4440 N.3    13  LYS13      -0.1245
     10  CA       -94.2920   41.1170  -40.7320 C.3    13  LYS13       0.1561
     11  C        -94.0020   40.8110  -39.2610 C.2    13  LYS13       0.2260
     12  O        -93.4410   39.7580  -38.9330 O.2    13  LYS13      -0.2867
     13  CB       -95.4910   42.0180  -40.9850 C.3    13  LYS13       0.0271
     14  CG       -95.7280   42.1900  -42.4860 C.3    13  LYS13       0.0035
     15  CD       -96.6180   43.3400  -42.8100 C.3    13  LYS13       0.0206
     16  CE       -96.7850   43.4560  -44.3190 C.3    13  LYS13       0.1093
     17  NZ       -97.7330   44.5350  -44.7340 N.3    13  LYS13      -0.1314
     18  N        -88.7710   47.2140  -48.1000 N.3    97  HIS97      -0.1241
     19  CA       -90.2220   47.1580  -47.8920 C.3    97  HIS97       0.1621
     20  C        -90.7700   48.5390  -47.5330 C.2    97  HIS97       0.2264
     21  O        -90.1100   49.3300  -46.8490 O.2    97  HIS97      -0.2867
     22  CB       -90.5950   46.1320  -46.8100 C.3    97  HIS97       0.0745
     23  CG       -92.0670   45.8450  -46.7650 C.ar   97  HIS97       0.0817
     24  ND1      -92.9560   46.6250  -46.0540 N.ar   97  HIS97      -0.2268
     25  CD2      -92.8140   44.9210  -47.4180 C.ar   97  HIS97       0.1154
     26  CE1      -94.1820   46.1670  -46.2370 C.ar   97  HIS97       0.1986
     27  NE2      -94.1240   45.1250  -47.0520 N.ar   97  HIS97      -0.2212
     28  N        -95.3470   46.9270  -54.9180 N.3   168  GLU168     -0.1245
     29  CA       -96.3960   47.0050  -53.9000 C.3   168  GLU168      0.1567
     30  C        -96.7850   48.4670  -53.7490 C.2   168  GLU168      0.2260
     31  O        -96.1790   49.1940  -52.9560 O.2   168  GLU168     -0.2867
     32  CB       -95.9380   46.4450  -52.5550 C.3   168  GLU168      0.0388
     33  CG       -95.2320   45.1140  -52.6310 C.3   168  GLU168      0.1160
     34  CD       -95.1630   44.4280  -51.2850 C.2   168  GLU168      0.3649
     35  OE1      -94.3410   44.8480  -50.4310 O.co2 168  GLU168     -0.2457
     36  OE2      -95.9460   43.4720  -51.0890 O.co2 168  GLU168     -0.2457
     37  N       -101.2440   48.3310  -49.5720 N.3   173  ILE173     -0.1231
     38  CA      -100.6680   47.5050  -48.5130 C.3   173  ILE173      0.1692
     39  C       -101.5490   47.6280  -47.2770 C.2   173  ILE173      0.2592
     40  O       -101.6350   48.7030  -46.6710 O.2   173  ILE173     -0.2718
     41  CB       -99.2220   47.9030  -48.1950 C.3   173  ILE173      0.0266
     42  CG1      -98.3300   47.6960  -49.4270 C.3   173  ILE173      0.0019
     43  CG2      -98.7220   47.1040  -46.9660 C.3   173  ILE173      0.0020
     44  CD1      -96.9530   48.4350  -49.3020 C.3   173  ILE173      0.0001
     45  N       -102.1920   46.5220  -46.9010 N.am  174  GLY174     -0.1957
     46  CA      -102.9470   46.4470  -45.6620 C.3   174  GLY174      0.1869
     47  C       -104.2740   47.1740  -45.6860 C.2   174  GLY174      0.2309
     48  O       -104.9810   47.1850  -44.6780 O.2   174  GLY174     -0.2863
     49  N        -99.8660   43.7570  -52.2480 N.3   213  GLY213     -0.1210
     50  CA      -100.8060   44.7400  -51.7410 C.3   213  GLY213      0.1956
     51  C       -102.2380   44.2290  -51.7520 C.2   213  GLY213      0.2613
     52  O       -102.9390   44.3630  -52.7660 O.2   213  GLY213     -0.2717
     53  N       -102.6520   43.6020  -50.6400 N.am  214  SER214     -0.1938
     54  CA      -104.0180   43.0700  -50.4340 C.3   214  SER214      0.2055
     55  C       -104.3280   41.8500  -51.3080 C.2   214  SER214      0.2642
     56  O       -105.4900   41.5690  -51.6100 O.2   214  SER214     -0.2714
     57  CB      -105.0820   44.1580  -50.6320 C.3   214  SER214      0.2130
     58  OG      -104.8860   45.2230  -49.7070 O.3   214  SER214     -0.2179
     59  N       -103.3020   41.0930  -51.6990 N.am  215  VAL215     -0.1977
     60  CA      -103.5160   39.8570  -52.4460 C.3   215  VAL215      0.1596
     61  C       -104.2320   38.8590  -51.5440 C.2   215  VAL215      0.2287
     62  O       -103.9000   38.7320  -50.3580 O.2   215  VAL215     -0.2864
     63  CB      -102.1720   39.3070  -52.9490 C.3   215  VAL215      0.0276
     64  CG1     -102.3330   37.9250  -53.5620 C.3   215  VAL215      0.0022
     65  CG2     -101.5220   40.2950  -53.9470 C.3   215  VAL215      0.0022
     66  N        -96.2170   38.9950  -53.4880 N.3   233  LEU233     -0.1231
     67  CA       -95.7050   39.1610  -52.1310 C.3   233  LEU233      0.1693
     68  C        -96.9290   39.4130  -51.2640 C.2   233  LEU233      0.2592
     69  O        -97.6200   40.4140  -51.4520 O.2   233  LEU233     -0.2718
     70  CB       -94.7170   40.3210  -52.0420 C.3   233  LEU233      0.0284
     71  CG       -93.9570   40.5180  -50.7300 C.3   233  LEU233      0.0019
     72  CD1      -93.3250   39.2170  -50.2300 C.3   233  LEU233      0.0001
     73  CD2      -92.9110   41.6160  -50.9040 C.3   233  LEU233      0.0001
     74  N        -97.2030   38.4990  -50.3380 N.am  234  VAL234     -0.1966
     75  CA       -98.4770   38.4370  -49.6250 C.3   234  VAL234      0.1727
     76  C        -98.2440   38.7600  -48.1590 C.2   234  VAL234      0.2617
     77  O        -97.4190   38.1110  -47.5000 O.2   234  VAL234     -0.2715
     78  CB       -99.1270   37.0530  -49.7610 C.3   234  VAL234      0.0290
     79  CG1     -100.5020   37.0650  -49.0960 C.3   234  VAL234      0.0023
     80  CG2      -99.2150   36.6540  -51.2250 C.3   234  VAL234      0.0023
     81  N        -98.9890   39.7370  -47.6450 N.am  235  GLY235     -0.1940
     82  CA       -98.8390   40.1540  -46.2660 C.3   235  GLY235      0.2014
     83  C        -99.8860   39.5140  -45.3830 C.2   235  GLY235      0.2639
     84  O        -99.7110   38.3630  -44.9520 O.2   235  GLY235     -0.2714
     85  N       -100.9850   40.2370  -45.1330 N.am  236  GLY236     -0.1939
     86  CA      -102.0130   39.7340  -44.2250 C.3   236  GLY236      0.2014
     87  C       -102.4570   38.3240  -44.5640 C.2   236  GLY236      0.2638
     88  O       -102.5530   37.4510  -43.6930 O.2   236  GLY236     -0.2714
     89  N       -102.7010   38.0640  -45.8440 N.am  237  ALA237     -0.1977
     90  CA      -103.1890   36.7450  -46.2190 C.3   237  ALA237      0.1597
     91  C       -102.1540   35.6370  -46.0290 C.2   237  ALA237      0.2287
     92  O       -102.5290   34.4620  -46.0760 O.2   237  ALA237     -0.2864
     93  CB      -103.6970   36.7660  -47.6700 C.3   237  ALA237      0.0319
@<TRIPOS>BOND
     1    28    29    1
     2    65    63    1
     3    29    30    1
     4    29    32    1
     5    30    31    2
     6    64    63    1
     7    66    67    1
     8    63    60    1
     9    52    51    2
    10    33    32    1
    11    33    34    1
    12    60    59    1
    13    60    61    1
    14    49    50    1
    15    67    70    1
    16    67    68    1
    17    70    71    1
    18    51    50    1
    19    51    53   am
    20    59    55   am
    21    56    55    2
    22    61    62    2
    23    69    68    2
    24    55    54    1
    25    34    36   ar
    26    34    35   ar
    27    68    74   am
    28    80    78    1
    29    73    71    1
    30    71    72    1
    31    53    54    1
    32    57    54    1
    33    57    58    1
    34    74    75    1
    35    78    75    1
    36    78    79    1
    37    75    76    1
    38    37    38    1
    39    42    44    1
    40    42    41    1
    41    38    41    1
    42    38    39    1
    43    41    43    1
    44    76    81   am
    45    76    77    2
    46    18    19    1
    47    19    20    1
    48    19    22    1
    49    93    90    1
    50    81    82    1
    51    20    21    2
    52    25    27   ar
    53    25    23   ar
    54    39    45   am
    55    39    40    2
    56    27    26   ar
    57    45    46    1
    58    22    23    1
    59    23    24   ar
    60     1     2    1
    61    82    83    1
    62    26    24   ar
    63    90    91    1
    64    90    89    1
    65    92    91    2
    66     5     2    1
    67     5     6    1
    68    89    87   am
    69    47    46    1
    70    47    48    2
    71     8     6   am
    72     2     3    1
    73    83    85   am
    74    83    84    2
    75    85    86    1
    76     6     7    2
    77    17    16    1
    78    87    86    1
    79    87    88    2
    80    16    15    1
    81     3     4    2
    82    15    14    1
    83    14    13    1
    84     9    10    1
    85    13    10    1
    86    10    11    1
    87    11    12    2
