@<TRIPOS>MOLECULE
tmp/6nezA00.pdb
 158 153 0 0 0
SMALL
GASTEIGER

@<TRIPOS>ATOM
      1  N         32.9400    5.4240   12.8150 N.3    21  GLU21      -0.1231
      2  CA        31.9140    4.3450   12.9170 C.3    21  GLU21       0.1699
      3  C         31.1410    4.1660   11.6020 C.2    21  GLU21       0.2592
      4  O         30.3380    3.1930   11.5090 O.2    21  GLU21      -0.2718
      5  CB        30.9310    4.6150   14.0580 C.3    21  GLU21       0.0402
      6  CG        31.3560    4.0070   15.3770 C.3    21  GLU21       0.1161
      7  CD        32.4190    4.7830   16.1260 C.2    21  GLU21       0.3649
      8  OE1       33.4420    4.1890   16.5100 O.co2  21  GLU21      -0.2457
      9  OE2       32.2140    5.9690   16.3280 O.co2  21  GLU21      -0.2457
     10  N         31.3630    5.0570   10.6290 N.am   22  ASN22      -0.1960
     11  CA        30.7730    4.9760    9.2620 C.3    22  ASN22       0.1819
     12  C         29.2470    4.8080    9.3750 C.2    22  ASN22       0.2622
     13  O         28.6890    4.0060    8.6130 O.2    22  ASN22      -0.2715
     14  CB        31.3960    3.8410    8.4330 C.3    22  ASN22       0.1195
     15  CG        32.9070    3.9160    8.2850 C.2    22  ASN22       0.2630
     16  OD1       33.5860    2.8900    8.3120 O.2    22  ASN22      -0.2716
     17  ND2       33.4480    5.1120    8.1060 N.am   22  ASN22      -0.0877
     18  N         28.6020    5.5350   10.3000 N.am   23  GLY23      -0.1940
     19  CA        27.1290    5.5860   10.4420 C.3    23  GLY23       0.2014
     20  C         26.5270    4.3810   11.1660 C.2    23  GLY23       0.2639
     21  O         25.2830    4.2440   11.1630 O.2    23  GLY23      -0.2714
     22  N         27.3470    3.5400   11.7940 N.am   24  LEU24      -0.1963
     23  CA        26.8540    2.2960   12.4370 C.3    24  LEU24       0.1728
     24  C         25.7310    2.6100   13.4380 C.2    24  LEU24       0.2616
     25  O         24.7580    1.8630   13.4600 O.2    24  LEU24      -0.2715
     26  CB        28.0130    1.5660   13.1070 C.3    24  LEU24       0.0311
     27  CG        27.6970    0.1550   13.6000 C.3    24  LEU24       0.0022
     28  CD1       26.9850   -0.6660   12.5200 C.3    24  LEU24       0.0001
     29  CD2       28.9640   -0.5440   14.0580 C.3    24  LEU24       0.0001
     30  N         25.8290    3.6680   14.2430 N.am   25  PHE25      -0.1960
     31  CA        24.8450    3.9230   15.3290 C.3    25  PHE25       0.1771
     32  C         24.0600    5.2110   15.0650 C.2    25  PHE25       0.2620
     33  O         23.3150    5.6190   15.9630 O.2    25  PHE25      -0.2715
     34  CB        25.5510    3.9600   16.6870 C.3    25  PHE25       0.0574
     35  CG        26.1780    2.6480   17.0740 C.ar   25  PHE25      -0.0200
     36  CD1       25.3880    1.5490   17.3700 C.ar   25  PHE25      -0.0042
     37  CD2       27.5530    2.4990   17.1050 C.ar   25  PHE25      -0.0042
     38  CE1       25.9630    0.3340   17.7170 C.ar   25  PHE25      -0.0003
     39  CE2       28.1240    1.2810   17.4370 C.ar   25  PHE25      -0.0003
     40  CZ        27.3290    0.2010   17.7410 C.ar   25  PHE25      -0.0000
     41  N         24.2080    5.8180   13.8820 N.am   26  SER26      -0.1936
     42  CA        23.6150    7.1450   13.5600 C.3    26  SER26       0.2055
     43  C         22.0930    7.0930   13.6780 C.2    26  SER26       0.2642
     44  O         21.5240    8.0610   14.1670 O.2    26  SER26      -0.2714
     45  CB        24.0490    7.6360   12.2060 C.3    26  SER26       0.2130
     46  OG        25.4640    7.7470   12.1840 O.3    26  SER26      -0.2179
     47  N         21.4520    6.0080   13.2430 N.am   27  GLN27      -0.1976
     48  CA        19.9870    5.9940   13.0370 C.3    27  GLN27       0.1601
     49  C         19.3840    4.6430   13.4030 C.2    27  GLN27       0.2287
     50  O         20.1060    3.6330   13.4030 O.2    27  GLN27      -0.2864
     51  CB        19.6770    6.3210   11.5780 C.3    27  GLN27       0.0394
     52  CG        20.0590    7.7440   11.2050 C.3    27  GLN27       0.0908
     53  CD        19.4720    8.1630    9.8820 C.2    27  GLN27       0.2608
     54  OE1       18.2590    8.1110    9.6790 O.2    27  GLN27      -0.2717
     55  NE2       20.3400    8.5840    8.9740 N.am   27  GLN27      -0.0878
     56  N         17.7620    1.1570   13.3660 N.3    29  VAL29      -0.1245
     57  CA        18.0280   -0.0090   12.4820 C.3    29  VAL29       0.1561
     58  C         16.8520   -0.2130   11.5180 C.2    29  VAL29       0.2260
     59  O         17.0990   -0.3790   10.3170 O.2    29  VAL29      -0.2867
     60  CB        18.3000   -1.2710   13.3260 C.3    29  VAL29       0.0252
     61  CG1       18.2960   -2.5350   12.4830 C.3    29  VAL29       0.0019
     62  CG2       19.5990   -1.1490   14.1060 C.3    29  VAL29       0.0019
     63  N         16.2870    2.4590    8.6370 N.3    32  GLN32      -0.1231
     64  CA        17.3060    2.2500    7.5800 C.3    32  GLN32       0.1698
     65  C         17.0790    0.9430    6.8150 C.2    32  GLN32       0.2592
     66  O         17.4450    0.9250    5.6180 O.2    32  GLN32      -0.2718
     67  CB        18.6970    2.1050    8.1910 C.3    32  GLN32       0.0381
     68  CG        19.3950    3.4180    8.4540 C.3    32  GLN32       0.0905
     69  CD        20.6060    3.1810    9.3190 C.2    32  GLN32       0.2608
     70  OE1       21.7360    3.2460    8.8540 O.2    32  GLN32      -0.2717
     71  NE2       20.3760    2.8860   10.5860 N.am   32  GLN32      -0.0878
     72  N         16.6450   -0.1240    7.5070 N.am   33  TYR33      -0.1976
     73  CA        16.5300   -1.5090    6.9620 C.3    33  TYR33       0.1639
     74  C         15.1570   -2.1090    7.2660 C.2    33  TYR33       0.2290
     75  O         15.0330   -3.0290    8.0650 O.2    33  TYR33      -0.2864
     76  CB        17.6510   -2.3910    7.5060 C.3    33  TYR33       0.0560
     77  CG        19.0220   -1.8110    7.3160 C.ar   33  TYR33      -0.0198
     78  CD1       19.5220   -1.5200    6.0510 C.ar   33  TYR33      -0.0009
     79  CD2       19.8170   -1.5270    8.4060 C.ar   33  TYR33      -0.0009
     80  CE1       20.7800   -0.9590    5.8890 C.ar   33  TYR33       0.0417
     81  CE2       21.0680   -0.9590    8.2600 C.ar   33  TYR33       0.0417
     82  CZ        21.5540   -0.6650    7.0020 C.ar   33  TYR33       0.1957
     83  OH        22.8290   -0.1540    6.9120 O.3    33  TYR33      -0.2866
     84  N         14.1100   -5.8050    8.1740 N.3    36  LEU36      -0.1245
     85  CA        14.4950   -6.4280    9.4720 C.3    36  LEU36       0.1561
     86  C         13.3950   -6.2880   10.5150 C.2    36  LEU36       0.2260
     87  O         13.6850   -6.6470   11.6450 O.2    36  LEU36      -0.2867
     88  CB        15.7590   -5.7690   10.0210 C.3    36  LEU36       0.0270
     89  CG        16.9910   -5.8560    9.1280 C.3    36  LEU36       0.0019
     90  CD1       18.2160   -5.3040    9.8500 C.3    36  LEU36       0.0001
     91  CD2       17.2210   -7.2920    8.6900 C.3    36  LEU36       0.0001
     92  N         15.0390   -8.4320   13.4740 N.3    40  TYR40      -0.1241
     93  CA        15.7720   -7.6080   14.4620 C.3    40  TYR40       0.1605
     94  C         15.0120   -7.5900   15.7990 C.2    40  TYR40       0.2264
     95  O         15.6380   -7.8370   16.8290 O.2    40  TYR40      -0.2867
     96  CB        16.0380   -6.2070   13.9140 C.3    40  TYR40       0.0534
     97  CG        16.9630   -5.3980   14.7830 C.ar   40  TYR40      -0.0201
     98  CD1       18.3150   -5.6980   14.8790 C.ar   40  TYR40      -0.0009
     99  CD2       16.4690   -4.3610   15.5620 C.ar   40  TYR40      -0.0009
    100  CE1       19.1580   -4.9690   15.7030 C.ar   40  TYR40       0.0417
    101  CE2       17.2960   -3.6290   16.3930 C.ar   40  TYR40       0.0417
    102  CZ        18.6410   -3.9240   16.4470 C.ar   40  TYR40       0.1957
    103  OH        19.4180   -3.1630   17.2490 O.3    40  TYR40      -0.2866
    104  N         22.4250    0.1520   22.4620 N.3    78  MET78      -0.1245
    105  CA        22.9460    0.2220   21.0650 C.3    78  MET78       0.1570
    106  C         24.0310   -0.8380   20.8680 C.2    78  MET78       0.2261
    107  O         23.9850   -1.5730   19.8690 O.2    78  MET78      -0.2867
    108  CB        23.6420    1.5480   20.7590 C.3    78  MET78       0.0387
    109  CG        22.7410    2.6540   20.4960 C.3    78  MET78       0.0595
    110  SD        23.6980    4.1660   20.3190 S.3    78  MET78      -0.1393
    111  CE        22.4890    5.2600   21.0620 C.3    78  MET78       0.0692
    112  N         23.8770   -4.5250   18.8070 N.3    82  CYS82      -0.1235
    113  CA        24.7940   -4.6890   17.6560 C.3    82  CYS82       0.1677
    114  C         25.5720   -6.0030   17.8260 C.2    82  CYS82       0.2270
    115  O         25.6320   -6.7740   16.8480 O.2    82  CYS82      -0.2867
    116  CB        25.7360   -3.4970   17.5170 C.3    82  CYS82       0.0956
    117  SG        26.7390   -3.5860   16.0110 S.3    82  CYS82      -0.0801
    118  N         23.0320   -9.1780   17.7610 N.3    85  PHE85      -0.1227
    119  CA        22.4040   -9.4040   16.4300 C.3    85  PHE85       0.1736
    120  C         23.4490   -9.8270   15.3880 C.2    85  PHE85       0.2595
    121  O         23.1540  -10.7250   14.6070 O.2    85  PHE85      -0.2718
    122  CB        21.6550   -8.1690   15.9520 C.3    85  PHE85       0.0547
    123  CG        20.8210   -8.4020   14.7210 C.ar   85  PHE85      -0.0202
    124  CD1       19.7880   -9.3200   14.7290 C.ar   85  PHE85      -0.0042
    125  CD2       21.0580   -7.6910   13.5560 C.ar   85  PHE85      -0.0042
    126  CE1       19.0070   -9.5110   13.6010 C.ar   85  PHE85      -0.0003
    127  CE2       20.2730   -7.8800   12.4300 C.ar   85  PHE85      -0.0003
    128  CZ        19.2420   -8.7840   12.4570 C.ar   85  PHE85      -0.0000
    129  N         24.6510   -9.2480   15.4030 N.am   86  ASN86      -0.1974
    130  CA        25.6800   -9.5320   14.3600 C.3    86  ASN86       0.1688
    131  C         26.6110  -10.6860   14.7680 C.2    86  ASN86       0.2292
    132  O         27.2740  -11.2280   13.8630 O.2    86  ASN86      -0.2864
    133  CB        26.4520   -8.2700   14.0090 C.3    86  ASN86       0.1181
    134  CG        25.5380   -7.2210   13.4320 C.2    86  ASN86       0.2629
    135  OD1       24.9750   -7.4340   12.3620 O.2    86  ASN86      -0.2716
    136  ND2       25.3690   -6.1120   14.1430 N.am   86  ASN86      -0.0877
    137  N         33.0220   -8.5350   13.1270 N.3    91  ALA91      -0.1231
    138  CA        33.5590   -7.1740   12.8950 C.3    91  ALA91       0.1694
    139  C         32.5730   -6.0990   13.3910 C.2    91  ALA91       0.2592
    140  O         33.0450   -5.0690   13.9140 O.2    91  ALA91      -0.2718
    141  CB        33.9070   -7.0030   11.4250 C.3    91  ALA91       0.0304
    142  N         31.2610   -6.3020   13.2540 N.am   92  TYR92      -0.1976
    143  CA        30.2230   -5.3570   13.7640 C.3    92  TYR92       0.1639
    144  C         30.3390   -5.2510   15.2940 C.2    92  TYR92       0.2290
    145  O         30.2570   -4.1470   15.8100 O.2    92  TYR92      -0.2864
    146  CB        28.8130   -5.7700   13.3170 C.3    92  TYR92       0.0560
    147  CG        28.4000   -5.3150   11.9350 C.ar   92  TYR92      -0.0198
    148  CD1       28.1940   -3.9770   11.6620 C.ar   92  TYR92      -0.0009
    149  CD2       28.1900   -6.2130   10.8990 C.ar   92  TYR92      -0.0009
    150  CE1       27.8020   -3.5420   10.4050 C.ar   92  TYR92       0.0417
    151  CE2       27.7880   -5.7970    9.6370 C.ar   92  TYR92       0.0417
    152  CZ        27.5920   -4.4530    9.3880 C.ar   92  TYR92       0.1957
    153  OH        27.1900   -3.9950    8.1610 O.3    92  TYR92      -0.2866
    154  N         33.4720   -3.1810   16.1120 N.3    95  ALA95      -0.1245
    155  CA        33.1180   -1.7680   15.8690 C.3    95  ALA95       0.1562
    156  C         32.2750   -1.2560   17.0500 C.2    95  ALA95       0.2260
    157  O         32.5350   -0.1520   17.5350 O.2    95  ALA95      -0.2867
    158  CB        32.4350   -1.6450   14.5280 C.3    95  ALA95       0.0290
@<TRIPOS>BOND
     1    66    65    2
     2    80    78   ar
     3    80    82   ar
     4    78    77   ar
     5    65    72   am
     6    65    64    1
     7    83    82    1
     8    73    74    1
     9    73    76    1
    10    73    72    1
    11    82    81   ar
    12    74    75    2
    13    77    76    1
    14    77    79   ar
    15    64    67    1
    16    64    63    1
    17    17    15   am
    18   153   152    1
    19    84    85    1
    20    67    68    1
    21    81    79   ar
    22    15    16    2
    23    15    14    1
    24    14    11    1
    25    68    69    1
    26    13    12    2
    27    91    89    1
    28    70    69    2
    29    55    53   am
    30    89    90    1
    31    89    88    1
    32    11    12    1
    33    11    10    1
    34    69    71   am
    35    12    18   am
    36   152   151   ar
    37   152   150   ar
    38    85    88    1
    39    85    86    1
    40   151   149   ar
    41    54    53    2
    42    53    52    1
    43    18    19    1
    44    59    58    2
    45   150   148   ar
    46    19    20    1
    47    86    87    2
    48    10     3   am
    49   149   147   ar
    50    21    20    2
    51    20    22   am
    52    52    51    1
    53   141   138    1
    54     4     3    2
    55    58    57    1
    56    51    48    1
    57     3     2    1
    58   148   147   ar
    59    22    23    1
    60   147   146    1
    61    46    45    1
    62    45    42    1
    63   135   134    2
    64   127   128   ar
    65   127   125   ar
    66    23    26    1
    67    23    24    1
    68   128   126   ar
    69    57    60    1
    70    57    56    1
    71    61    60    1
    72    28    27    1
    73     1     2    1
    74   138   137    1
    75   138   139    1
    76     2     5    1
    77    48    47    1
    78    48    49    1
    79    26    27    1
    80    47    43   am
    81   142   139   am
    82   142   143    1
    83   146   143    1
    84    60    62    1
    85   139   140    2
    86    49    50    2
    87   134   133    1
    88   134   136   am
    89    24    25    2
    90    24    30   am
    91    92    93    1
    92   125   123   ar
    93    42    43    1
    94    42    41    1
    95    27    29    1
    96   126   124   ar
    97    43    44    2
    98   143   144    1
    99   132   131    2
   100    41    32   am
   101    96    93    1
   102    96    97    1
   103   133   130    1
   104     5     6    1
   105    30    31    1
   106   130   131    1
   107   130   129    1
   108    93    94    1
   109   158   155    1
   110   121   120    2
   111   123   124   ar
   112   123   122    1
   113    97    98   ar
   114    97    99   ar
   115    98   100   ar
   116    32    31    1
   117    32    33    2
   118   144   145    2
   119    31    34    1
   120     6     7    1
   121   120   129   am
   122   120   119    1
   123    99   101   ar
   124   100   102   ar
   125    94    95    2
   126   155   154    1
   127   155   156    1
   128   122   119    1
   129   117   116    1
   130     7     9   ar
   131     7     8   ar
   132   101   102   ar
   133   119   118    1
   134   102   103    1
   135    34    35    1
   136   115   114    2
   137   156   157    2
   138    35    37   ar
   139    35    36   ar
   140    37    39   ar
   141    36    38   ar
   142    39    40   ar
   143   116   113    1
   144   113   114    1
   145   113   112    1
   146    38    40   ar
   147   107   106    2
   148   110   109    1
   149   110   111    1
   150   109   108    1
   151   108   105    1
   152   106   105    1
   153   105   104    1
