@<TRIPOS>MOLECULE
tmp/6nezC00.pdb
 124 120 0 0 0
SMALL
GASTEIGER

@<TRIPOS>ATOM
      1  N         46.2250   22.0660   16.1790 N.3    22  ASN22      -0.1225
      2  CA        45.9960   21.1040   17.2940 C.3    22  ASN22       0.1785
      3  C         44.4810   20.9380   17.5270 C.2    22  ASN22       0.2598
      4  O         44.0520   20.9370   18.7000 O.2    22  ASN22      -0.2718
      5  CB        46.7370   21.5340   18.5700 C.3    22  ASN22       0.1169
      6  CG        48.2420   21.3560   18.5050 C.2    22  ASN22       0.2627
      7  OD1       48.7430   20.2360   18.3570 O.2    22  ASN22      -0.2716
      8  ND2       48.9720   22.4520   18.6760 N.am   22  ASN22      -0.0877
      9  N         43.7030   20.8170   16.4440 N.am   23  GLY23      -0.1942
     10  CA        42.2680   20.4820   16.4900 C.3    23  GLY23       0.2014
     11  C         41.3940   21.6850   16.8140 C.2    23  GLY23       0.2639
     12  O         40.1770   21.4950   17.0300 O.2    23  GLY23      -0.2714
     13  N         41.9590   22.8920   16.7950 N.am   24  LEU24      -0.1963
     14  CA        41.2290   24.1200   17.1970 C.3    24  LEU24       0.1728
     15  C         39.9570   24.2690   16.3540 C.2    24  LEU24       0.2616
     16  O         38.9000   24.5240   16.9370 O.2    24  LEU24      -0.2715
     17  CB        42.1370   25.3430   17.0390 C.3    24  LEU24       0.0311
     18  CG        42.0890   26.3320   18.2000 C.3    24  LEU24       0.0022
     19  CD1       42.7970   25.7580   19.4170 C.3    24  LEU24       0.0001
     20  CD2       42.7110   27.6600   17.8080 C.3    24  LEU24       0.0001
     21  N         40.0600   24.1670   15.0280 N.am   25  PHE25      -0.1974
     22  CA        38.9360   24.4730   14.0960 C.3    25  PHE25       0.1639
     23  C         38.4600   23.1940   13.3970 C.2    25  PHE25       0.2290
     24  O         37.7200   23.3030   12.4080 O.2    25  PHE25      -0.2864
     25  CB        39.3480   25.5540   13.0910 C.3    25  PHE25       0.0560
     26  CG        39.8460   26.8120   13.7440 C.ar   25  PHE25      -0.0200
     27  CD1       38.9610   27.7330   14.2740 C.ar   25  PHE25      -0.0042
     28  CD2       41.2070   27.0590   13.8660 C.ar   25  PHE25      -0.0042
     29  CE1       39.4260   28.8820   14.8990 C.ar   25  PHE25      -0.0003
     30  CE2       41.6710   28.2100   14.4880 C.ar   25  PHE25      -0.0003
     31  CZ        40.7780   29.1240   14.9950 C.ar   25  PHE25      -0.0000
     32  N         32.7050   23.7020   18.2660 N.3    29  VAL29      -0.1245
     33  CA        33.2230   23.9850   19.6430 C.3    29  VAL29       0.1561
     34  C         32.3640   23.2560   20.6810 C.2    29  VAL29       0.2260
     35  O         32.9510   22.6690   21.6050 O.2    29  VAL29      -0.2867
     36  CB        33.2840   25.4930   19.9580 C.3    29  VAL29       0.0252
     37  CG1       33.4570   25.7450   21.4490 C.3    29  VAL29       0.0019
     38  CG2       34.3850   26.1840   19.1710 C.3    29  VAL29       0.0019
     39  N         33.1880   19.5330   20.9250 N.3    32  GLN32      -0.1231
     40  CA        34.4500   19.3270   21.6960 C.3    32  GLN32       0.1698
     41  C         34.1870   19.6440   23.1910 C.2    32  GLN32       0.2592
     42  O         34.7130   18.8980   24.0330 O.2    32  GLN32      -0.2718
     43  CB        35.5870   20.1760   21.1190 C.3    32  GLN32       0.0381
     44  CG        35.7880   20.0240   19.6120 C.3    32  GLN32       0.0905
     45  CD        37.1190   20.5780   19.1610 C.2    32  GLN32       0.2608
     46  OE1       38.1650   20.1460   19.6300 O.2    32  GLN32      -0.2717
     47  NE2       37.0980   21.5520   18.2610 N.am   32  GLN32      -0.0878
     48  N         33.3470   20.6510   23.5130 N.am   33  TYR33      -0.1976
     49  CA        33.1250   21.1720   24.8940 C.3    33  TYR33       0.1639
     50  C         31.6370   21.3800   25.1660 C.2    33  TYR33       0.2290
     51  O         31.1610   22.5020   25.3180 O.2    33  TYR33      -0.2864
     52  CB        33.9460   22.4530   25.1080 C.3    33  TYR33       0.0560
     53  CG        35.4390   22.2680   24.9310 C.ar   33  TYR33      -0.0198
     54  CD1       36.1740   21.4540   25.7860 C.ar   33  TYR33      -0.0009
     55  CD2       36.1180   22.8730   23.8830 C.ar   33  TYR33      -0.0009
     56  CE1       37.5380   21.2640   25.6150 C.ar   33  TYR33       0.0417
     57  CE2       37.4820   22.6970   23.6990 C.ar   33  TYR33       0.0417
     58  CZ        38.1990   21.8930   24.5690 C.ar   33  TYR33       0.1957
     59  OH        39.5420   21.7310   24.3780 O.3    33  TYR33      -0.2866
     60  N         30.1830   24.1380   27.3770 N.3    36  LEU36      -0.1245
     61  CA        30.2160   25.5770   26.9770 C.3    36  LEU36       0.1561
     62  C         28.9680   25.9600   26.1690 C.2    36  LEU36       0.2260
     63  O         28.9070   27.1050   25.7260 O.2    36  LEU36      -0.2867
     64  CB        31.5070   25.8430   26.1980 C.3    36  LEU36       0.0270
     65  CG        32.7870   25.6030   27.0060 C.3    36  LEU36       0.0019
     66  CD1       34.0400   25.8030   26.1550 C.3    36  LEU36       0.0001
     67  CD2       32.8140   26.4910   28.2540 C.3    36  LEU36       0.0001
     68  N         29.1210   29.8250   25.4480 N.3    40  TYR40      -0.1241
     69  CA        29.7200   30.0290   24.1030 C.3    40  TYR40       0.1605
     70  C         28.6850   30.6890   23.1830 C.2    40  TYR40       0.2264
     71  O         29.0200   31.6790   22.5150 O.2    40  TYR40      -0.2867
     72  CB        30.2640   28.7310   23.4980 C.3    40  TYR40       0.0534
     73  CG        30.9610   28.9750   22.1880 C.ar   40  TYR40      -0.0201
     74  CD1       32.2640   29.4510   22.1430 C.ar   40  TYR40      -0.0009
     75  CD2       30.2770   28.8400   20.9950 C.ar   40  TYR40      -0.0009
     76  CE1       32.8840   29.7320   20.9360 C.ar   40  TYR40       0.0417
     77  CE2       30.8850   29.1070   19.7840 C.ar   40  TYR40       0.0417
     78  CZ        32.1890   29.5680   19.7480 C.ar   40  TYR40       0.1957
     79  OH        32.7690   29.8080   18.5280 O.3    40  TYR40      -0.2866
     80  N         34.8360   31.4550   12.1080 N.3    78  MET78      -0.1245
     81  CA        35.6440   30.5390   12.9540 C.3    78  MET78       0.1570
     82  C         36.6600   31.3730   13.7320 C.2    78  MET78       0.2261
     83  O         36.8020   31.1990   14.9590 O.2    78  MET78      -0.2867
     84  CB        36.4400   29.5390   12.1130 C.3    78  MET78       0.0387
     85  CG        35.5960   28.5280   11.4710 C.3    78  MET78       0.0595
     86  SD        36.5390   27.3010   10.5600 S.3    78  MET78      -0.1393
     87  CE        35.3420   27.0580    9.2540 C.3    78  MET78       0.0692
     88  N         36.6970   32.6890   17.7440 N.3    82  CYS82      -0.1235
     89  CA        37.8420   32.3010   18.6190 C.3    82  CYS82       0.1677
     90  C         38.3920   33.5210   19.3760 C.2    82  CYS82       0.2270
     91  O         38.6620   33.4010   20.5700 O.2    82  CYS82      -0.2867
     92  CB        38.9650   31.6460   17.8340 C.3    82  CYS82       0.0956
     93  SG        40.1370   30.7800   18.9060 S.3    82  CYS82      -0.0801
     94  N         35.5630   35.0110   21.9980 N.3    85  PHE85      -0.1227
     95  CA        35.2440   34.1330   23.1530 C.3    85  PHE85       0.1736
     96  C         36.4720   33.9540   24.0560 C.2    85  PHE85       0.2595
     97  O         36.2740   33.9270   25.2770 O.2    85  PHE85      -0.2718
     98  CB        34.7130   32.7730   22.7040 C.3    85  PHE85       0.0547
     99  CG        34.4160   31.8380   23.8460 C.ar   85  PHE85      -0.0202
    100  CD1       33.2850   32.0190   24.6300 C.ar   85  PHE85      -0.0042
    101  CD2       35.2820   30.8050   24.1660 C.ar   85  PHE85      -0.0042
    102  CE1       33.0180   31.1680   25.6950 C.ar   85  PHE85      -0.0003
    103  CE2       35.0040   29.9470   25.2220 C.ar   85  PHE85      -0.0003
    104  CZ        33.8770   30.1330   25.9900 C.ar   85  PHE85      -0.0000
    105  N         37.6740   33.8100   23.4860 N.am   86  ASN86      -0.1974
    106  CA        38.9040   33.4240   24.2370 C.3    86  ASN86       0.1688
    107  C         39.7350   34.6590   24.6430 C.2    86  ASN86       0.2292
    108  O         40.5930   34.5090   25.5370 O.2    86  ASN86      -0.2864
    109  CB        39.7690   32.4400   23.4470 C.3    86  ASN86       0.1181
    110  CG        39.1100   31.0910   23.2730 C.2    86  ASN86       0.2629
    111  OD1       38.8110   30.4130   24.2480 O.2    86  ASN86      -0.2716
    112  ND2       38.8640   30.6990   22.0350 N.am   86  ASN86      -0.0877
    113  N         45.1800   31.9080   22.1180 N.3    92  TYR92      -0.1241
    114  CA        44.0900   31.4270   21.2240 C.3    92  TYR92       0.1605
    115  C         43.9050   32.4120   20.0570 C.2    92  TYR92       0.2264
    116  O         43.8320   31.9610   18.8840 O.2    92  TYR92      -0.2867
    117  CB        42.7880   31.2050   22.0100 C.3    92  TYR92       0.0534
    118  CG        42.7120   29.9030   22.7760 C.ar   92  TYR92      -0.0201
    119  CD1       42.8520   28.6840   22.1320 C.ar   92  TYR92      -0.0009
    120  CD2       42.4590   29.8770   24.1370 C.ar   92  TYR92      -0.0009
    121  CE1       42.7870   27.4820   22.8150 C.ar   92  TYR92       0.0417
    122  CE2       42.3800   28.6820   24.8370 C.ar   92  TYR92       0.0417
    123  CZ        42.5410   27.4780   24.1730 C.ar   92  TYR92       0.1957
    124  OH        42.4630   26.2890   24.8430 O.3    92  TYR92      -0.2866
@<TRIPOS>BOND
     1    87    86    1
     2    86    85    1
     3    85    84    1
     4    80    81    1
     5    84    81    1
     6    24    23    2
     7    81    82    1
     8    25    26    1
     9    25    22    1
    10    23    22    1
    11    82    83    2
    12    26    28   ar
    13    26    27   ar
    14    28    30   ar
    15    22    21    1
    16    27    29   ar
    17    30    31   ar
    18    29    31   ar
    19    21    15   am
    20     1     2    1
    21    15    16    2
    22    15    14    1
    23     9    10    1
    24     9     3   am
    25    10    11    1
    26    13    11   am
    27    13    14    1
    28    11    12    2
    29    17    14    1
    30    17    18    1
    31     2     3    1
    32     2     5    1
    33     3     4    2
    34    88    89    1
    35    20    18    1
    36    92    89    1
    37    92    93    1
    38    18    19    1
    39    47    45   am
    40    32    33    1
    41     7     6    2
    42     6     5    1
    43     6     8   am
    44    79    78    1
    45    89    90    1
    46   116   115    2
    47    45    44    1
    48    45    46    2
    49    38    36    1
    50    90    91    2
    51    44    43    1
    52    33    36    1
    53    33    34    1
    54    78    77   ar
    55    78    76   ar
    56    77    75   ar
    57    36    37    1
    58   115   114    1
    59    34    35    2
    60    39    40    1
    61    76    74   ar
    62    75    73   ar
    63    43    40    1
    64   114   117    1
    65   114   113    1
    66    40    41    1
    67    94    95    1
    68   117   118    1
    69   112   110   am
    70   119   118   ar
    71   119   121   ar
    72    74    73   ar
    73    73    72    1
    74    71    70    2
    75    98    95    1
    76    98    99    1
    77   118   120   ar
    78   121   123   ar
    79    95    96    1
    80    70    69    1
    81    41    48   am
    82    41    42    2
    83   110   109    1
    84   110   111    2
    85   109   106    1
    86   105    96   am
    87   105   106    1
    88    72    69    1
    89    48    49    1
    90    57    55   ar
    91    57    58   ar
    92    99   101   ar
    93    99   100   ar
    94    55    53   ar
    95    96    97    2
    96    69    68    1
    97   120   122   ar
    98   101   103   ar
    99   123   122   ar
   100   123   124    1
   101   106   107    1
   102    59    58    1
   103    58    56   ar
   104   100   102   ar
   105   107   108    2
   106    49    52    1
   107    49    50    1
   108    53    52    1
   109    53    54   ar
   110    50    51    2
   111   103   104   ar
   112    56    54   ar
   113   102   104   ar
   114    63    62    2
   115    66    65    1
   116    62    61    1
   117    64    61    1
   118    64    65    1
   119    61    60    1
   120    65    67    1
