@<TRIPOS>MOLECULE
tmp/6nfeB01.pdb
 110 106 0 0 0
SMALL
GASTEIGER

@<TRIPOS>ATOM
      1  N         26.0130   59.4150   20.0170 N.3    95  ARG95      -0.1245
      2  CA        26.7850   59.9610   18.9080 C.3    95  ARG95       0.1563
      3  C         25.9710   60.0870   17.6250 C.2    95  ARG95       0.2260
      4  O         26.4030   60.7770   16.6940 O.2    95  ARG95      -0.2867
      5  CB        28.0350   59.1070   18.6630 C.3    95  ARG95       0.0307
      6  CG        29.1100   59.3210   19.7220 C.3    95  ARG95       0.0489
      7  CD        30.2370   58.2840   19.5980 C.3    95  ARG95       0.2205
      8  NE        29.8220   56.9830   20.1160 N.pl3  95  ARG95      -0.0865
      9  CZ        30.6060   55.9080   20.1950 C.cat  95  ARG95       0.5346
     10  NH1       31.8710   55.9460   19.7780 N.pl3  95  ARG95       0.1354
     11  NH2       30.1150   54.7830   20.6940 N.pl3  95  ARG95       0.1354
     12  N         27.1980   62.7770   25.7290 N.3   130  HIS130     -0.1241
     13  CA        28.1340   63.1140   24.6530 C.3   130  HIS130      0.1621
     14  C         27.9070   64.5250   24.1160 C.2   130  HIS130      0.2264
     15  O         28.8730   65.2450   23.8080 O.2   130  HIS130     -0.2867
     16  CB        28.0290   62.1050   23.5130 C.3   130  HIS130      0.0745
     17  CG        28.9140   62.4310   22.3470 C.ar  130  HIS130      0.0817
     18  ND1       30.2910   62.4580   22.4410 N.ar  130  HIS130     -0.2268
     19  CD2       28.6170   62.7540   21.0650 C.ar  130  HIS130      0.1154
     20  CE1       30.8020   62.7830   21.2640 C.ar  130  HIS130      0.1986
     21  NE2       29.8060   62.9610   20.4120 N.ar  130  HIS130     -0.2212
     22  N         40.6400   65.9960   20.4400 N.3   169  ASP169     -0.1239
     23  CA        40.0520   66.4270   19.1780 C.3   169  ASP169      0.1674
     24  C         39.4170   67.7990   19.3850 C.2   169  ASP169      0.2266
     25  O         39.3650   68.3150   20.5030 O.2   169  ASP169     -0.2867
     26  CB        39.0510   65.3880   18.6460 C.3   169  ASP169      0.1410
     27  CG        37.9900   64.9870   19.6770 C.2   169  ASP169      0.3668
     28  OD1       37.7250   65.7560   20.6220 O.co2 169  ASP169     -0.2456
     29  OD2       37.4220   63.8800   19.5400 O.co2 169  ASP169     -0.2456
     30  N         34.8390   70.3350   27.2950 N.3   175  ARG175     -0.1245
     31  CA        35.0430   69.4360   28.4270 C.3   175  ARG175      0.1563
     32  C         36.4440   69.5860   29.0020 C.2   175  ARG175      0.2260
     33  O         36.6200   69.6520   30.2240 O.2   175  ARG175     -0.2867
     34  CB        34.7970   67.9880   27.9870 C.3   175  ARG175      0.0307
     35  CG        34.2040   67.0650   29.0530 C.3   175  ARG175      0.0489
     36  CD        33.8540   65.6700   28.4990 C.3   175  ARG175      0.2205
     37  NE        33.4730   65.6890   27.0830 N.pl3 175  ARG175     -0.0865
     38  CZ        32.2300   65.5780   26.6180 C.cat 175  ARG175      0.5346
     39  NH1       31.2060   65.4280   27.4500 N.pl3 175  ARG175      0.1354
     40  NH2       32.0080   65.6080   25.3050 N.pl3 175  ARG175      0.1354
     41  N         38.4880   63.1820   27.9110 N.3   214  ASP214     -0.1225
     42  CA        37.4860   62.9040   26.8890 C.3   214  ASP214      0.1805
     43  C         36.3050   62.1970   27.5490 C.2   214  ASP214      0.2598
     44  O         36.3740   61.7820   28.7100 O.2   214  ASP214     -0.2718
     45  CB        38.0870   62.0640   25.7520 C.3   214  ASP214      0.1424
     46  CG        37.4670   62.3700   24.4060 C.2   214  ASP214      0.3668
     47  OD1       36.5380   63.2100   24.3430 O.co2 214  ASP214     -0.2456
     48  OD2       37.9190   61.7720   23.4040 O.co2 214  ASP214     -0.2456
     49  N         35.2120   62.0650   26.7920 N.am  215  ASP215     -0.1960
     50  CA        34.0240   61.4280   27.3490 C.3   215  ASP215      0.1840
     51  C         33.9710   59.9300   27.0730 C.2   215  ASP215      0.2622
     52  O         33.5360   59.1590   27.9370 O.2   215  ASP215     -0.2715
     53  CB        32.7400   62.0980   26.8210 C.3   215  ASP215      0.1450
     54  CG        32.5750   62.0010   25.3000 C.2   215  ASP215      0.3671
     55  OD1       33.5810   62.0340   24.5580 O.co2 215  ASP215     -0.2456
     56  OD2       31.4090   61.9050   24.8400 O.co2 215  ASP215     -0.2456
     57  N         34.3950   59.4910   25.8900 N.am  216  ILE216     -0.1963
     58  CA        34.2670   58.0930   25.4820 C.3   216  ILE216      0.1727
     59  C         35.6180   57.6250   24.9660 C.2   216  ILE216      0.2616
     60  O         36.2570   58.3300   24.1750 O.2   216  ILE216     -0.2715
     61  CB        33.1960   57.9140   24.3840 C.3   216  ILE216      0.0290
     62  CG1       31.7970   58.2390   24.9220 C.3   216  ILE216      0.0022
     63  CG2       33.2450   56.4930   23.8010 C.3   216  ILE216      0.0023
     64  CD1       30.7730   58.4390   23.8030 C.3   216  ILE216      0.0001
     65  N         36.0580   56.4500   25.4090 N.am  217  VAL217     -0.1963
     66  CA        37.1410   55.7380   24.7280 C.3   217  VAL217      0.1727
     67  C         36.5300   54.4670   24.1440 C.2   217  VAL217      0.2616
     68  O         36.0370   53.5990   24.8780 O.2   217  VAL217     -0.2715
     69  CB        38.3460   55.4570   25.6430 C.3   217  VAL217      0.0290
     70  CG1       37.9500   54.7980   26.9720 C.3   217  VAL217      0.0023
     71  CG2       39.3990   54.6100   24.8880 C.3   217  VAL217      0.0023
     72  N         36.5250   54.3830   22.8110 N.am  218  ASP218     -0.1957
     73  CA        35.8100   53.3300   22.1150 C.3   218  ASP218      0.1840
     74  C         36.8580   52.4220   21.4990 C.2   218  ASP218      0.2623
     75  O         37.2980   51.4620   22.1520 O.2   218  ASP218     -0.2715
     76  CB        34.8100   53.9440   21.1210 C.3   218  ASP218      0.1450
     77  CG        33.9260   52.9130   20.4600 C.2   218  ASP218      0.3671
     78  OD1       34.2280   51.7000   20.5350 O.co2 218  ASP218     -0.2456
     79  OD2       32.9160   53.3170   19.8350 O.co2 218  ASP218     -0.2456
     80  N         37.3080   52.6710   20.2650 N.am  219  THR219     -0.1937
     81  CA        38.4140   51.9080   19.6960 C.3   219  THR219      0.2028
     82  C         39.7670   52.3270   20.2580 C.2   219  THR219      0.2642
     83  O         40.7510   51.6090   20.0420 O.2   219  THR219     -0.2714
     84  CB        38.4580   52.0590   18.1700 C.3   219  THR219      0.1808
     85  OG1       38.8450   53.4010   17.8300 O.3   219  THR219     -0.2208
     86  CG2       37.0960   51.7470   17.5530 C.3   219  THR219      0.0379
     87  N         39.8180   53.4670   20.9510 N.am  220  ALA220     -0.1963
     88  CA        41.0050   54.1350   21.4830 C.3   220  ALA220      0.1728
     89  C         41.8760   54.7480   20.3950 C.2   220  ALA220      0.2617
     90  O         43.0330   55.1030   20.6660 O.2   220  ALA220     -0.2715
     91  CB        41.8540   53.2050   22.3650 C.3   220  ALA220      0.0334
     92  N         41.3620   54.8820   19.1690 N.am  221  GLY221     -0.1940
     93  CA        42.1350   55.5460   18.1270 C.3   221  GLY221      0.2014
     94  C         42.4140   57.0030   18.4480 C.2   221  GLY221      0.2640
     95  O         43.5500   57.4720   18.3330 O.2   221  GLY221     -0.2714
     96  N         41.3800   57.7350   18.8670 N.am  222  THR222     -0.1936
     97  CA        41.5530   59.1320   19.2590 C.3   222  THR222      0.2028
     98  C         42.5660   59.2530   20.3870 C.2   222  THR222      0.2642
     99  O         43.4760   60.0930   20.3450 O.2   222  THR222     -0.2714
    100  CB        40.2030   59.7180   19.6880 C.3   222  THR222      0.1808
    101  OG1       39.3000   59.6840   18.5800 O.3   222  THR222     -0.2208
    102  CG2       40.3540   61.1550   20.1680 C.3   222  THR222      0.0379
    103  N         42.4310   58.3930   21.3940 N.am  223  LEU223     -0.1977
    104  CA        43.3110   58.4270   22.5560 C.3   223  LEU223      0.1596
    105  C         44.7510   58.1030   22.1740 C.2   223  LEU223      0.2287
    106  O         45.6810   58.8460   22.5130 O.2   223  LEU223     -0.2864
    107  CB        42.7830   57.4370   23.5970 C.3   223  LEU223      0.0297
    108  CG        43.7140   57.0690   24.7450 C.3   223  LEU223      0.0022
    109  CD1       44.0820   58.3250   25.5250 C.3   223  LEU223      0.0001
    110  CD2       43.0280   56.0370   25.6490 C.3   223  LEU223      0.0001
@<TRIPOS>BOND
     1     4     3    2
     2    86    84    1
     3     3     2    1
     4    85    84    1
     5    93    94    1
     6    93    92    1
     7    84    81    1
     8    95    94    2
     9    94    96   am
    10   101   100    1
    11    26    23    1
    12    26    27    1
    13     5     2    1
    14     5     6    1
    15    96    97    1
    16     2     1    1
    17    92    89   am
    18    23    24    1
    19    23    22    1
    20    97   100    1
    21    97    98    1
    22    24    25    2
    23    29    27   ar
    24     7     6    1
    25     7     8    1
    26    27    28   ar
    27   100   102    1
    28    81    82    1
    29    81    80    1
    30    10     9    1
    31    79    77   ar
    32    83    82    2
    33     8     9    2
    34     9    11    1
    35    82    87   am
    36    80    74   am
    37    99    98    2
    38    98   103   am
    39    89    90    2
    40    89    88    1
    41    21    19   ar
    42    21    20   ar
    43    77    78   ar
    44    77    76    1
    45    87    88    1
    46    19    17   ar
    47    76    73    1
    48    20    18   ar
    49   103   104    1
    50    88    91    1
    51    74    73    1
    52    74    75    2
    53    73    72    1
    54   105   106    2
    55   105   104    1
    56    17    18   ar
    57    17    16    1
    58   104   107    1
    59    72    67   am
    60    48    46   ar
    61    16    13    1
    62   107   108    1
    63    63    61    1
    64    64    62    1
    65    15    14    2
    66    14    13    1
    67    67    66    1
    68    67    68    2
    69    60    59    2
    70    47    46   ar
    71    61    62    1
    72    61    58    1
    73    46    45    1
    74    55    54   ar
    75    13    12    1
    76    66    65    1
    77    66    69    1
    78   108   109    1
    79   108   110    1
    80    56    54   ar
    81    71    69    1
    82    59    65   am
    83    59    58    1
    84    54    53    1
    85    40    38    1
    86    58    57    1
    87    69    70    1
    88    45    42    1
    89    57    51   am
    90    38    37    2
    91    38    39    1
    92    49    50    1
    93    49    43   am
    94    53    50    1
    95    42    43    1
    96    42    41    1
    97    51    50    1
    98    51    52    2
    99    37    36    1
   100    30    31    1
   101    43    44    2
   102    34    31    1
   103    34    35    1
   104    31    32    1
   105    36    35    1
   106    32    33    2
