@<TRIPOS>MOLECULE
tmp/6nfeA01.pdb
 97 90 0 0 0
SMALL
GASTEIGER

@<TRIPOS>ATOM
      1  N          0.7740   35.0240    9.4350 N.3   128  ASP128     -0.1239
      2  CA         0.2870   34.1970   10.5420 C.3   128  ASP128      0.1674
      3  C          0.6270   34.8230   11.8940 C.2   128  ASP128      0.2266
      4  O          1.3070   34.2330   12.7350 O.2   128  ASP128     -0.2867
      5  CB         0.8560   32.7770   10.4570 C.3   128  ASP128      0.1410
      6  CG         0.1730   31.9320    9.4080 C.2   128  ASP128      0.3668
      7  OD1       -0.9900   32.2180    9.0560 O.co2 128  ASP128     -0.2456
      8  OD2        0.8010   30.9570    8.9540 O.co2 128  ASP128     -0.2456
      9  N         -4.4660   37.3190   15.7820 N.3   132  ASP132     -0.1239
     10  CA        -4.9210   38.2830   14.7820 C.3   132  ASP132      0.1674
     11  C         -5.4100   39.5700   15.4350 C.2   132  ASP132      0.2266
     12  O         -5.4360   40.6220   14.7810 O.2   132  ASP132     -0.2867
     13  CB        -6.0100   37.6490   13.9140 C.3   132  ASP132      0.1410
     14  CG        -6.2860   38.4350   12.6310 C.2   132  ASP132      0.3668
     15  OD1       -5.3380   38.9980   12.0270 O.co2 132  ASP132     -0.2456
     16  OD2       -7.4590   38.4600   12.2190 O.co2 132  ASP132     -0.2456
     17  N         -2.4420   40.7880    7.7590 N.3   144  ASN144     -0.1240
     18  CA        -1.9970   39.5090    8.3160 C.3   144  ASN144      0.1653
     19  C         -2.3400   38.4450    7.2840 C.2   144  ASN144      0.2266
     20  O         -3.5080   38.0770    7.1250 O.2   144  ASN144     -0.2867
     21  CB        -2.6790   39.2480    9.6570 C.3   144  ASN144      0.1155
     22  CG        -2.3530   37.8800   10.2180 C.2   144  ASN144      0.2627
     23  OD1       -1.2960   37.3310    9.9370 O.2   144  ASN144     -0.2716
     24  ND2       -3.2710   37.3210   11.0050 N.am  144  ASN144     -0.0877
     25  N         -2.2610   34.6770    5.6780 N.3   146  TYR146     -0.1241
     26  CA        -2.2150   33.3150    6.1870 C.3   146  TYR146      0.1605
     27  C         -1.2990   32.4590    5.3170 C.2   146  TYR146      0.2264
     28  O         -1.2990   32.5770    4.0860 O.2   146  TYR146     -0.2867
     29  CB        -3.6220   32.7060    6.2100 C.3   146  TYR146      0.0534
     30  CG        -4.6360   33.4450    7.0660 C.ar  146  TYR146     -0.0201
     31  CD1       -4.2470   34.1940    8.1660 C.ar  146  TYR146     -0.0009
     32  CD2       -5.9950   33.3720    6.7730 C.ar  146  TYR146     -0.0009
     33  CE1       -5.1840   34.8670    8.9450 C.ar  146  TYR146      0.0417
     34  CE2       -6.9340   34.0340    7.5470 C.ar  146  TYR146      0.0417
     35  CZ        -6.5200   34.7800    8.6310 C.ar  146  TYR146      0.1957
     36  OH        -7.4530   35.4370    9.4040 O.3   146  TYR146     -0.2866
     37  N         -1.6800   29.2730    5.1160 N.3   148  THR148     -0.1218
     38  CA        -2.4300   28.0510    4.8180 C.3   148  THR148      0.1862
     39  C         -2.3220   27.5800    3.3710 C.2   148  THR148      0.2287
     40  O         -2.1500   26.3640    3.1640 O.2   148  THR148     -0.2866
     41  CB        -3.9080   28.2560    5.1900 C.3   148  THR148      0.1770
     42  OG1       -3.9990   28.9020    6.4630 O.3   148  THR148     -0.2211
     43  CG2       -4.6450   26.9230    5.2520 C.3   148  THR148      0.0375
     44  N         -8.0910   27.0600   16.0670 N.3   174  VAL174     -0.1231
     45  CA        -8.5760   27.8450   14.9320 C.3   174  VAL174      0.1692
     46  C         -7.6810   27.6330   13.7140 C.2   174  VAL174      0.2591
     47  O         -8.1640   27.3930   12.5990 O.2   174  VAL174     -0.2718
     48  CB        -8.6750   29.3350   15.3150 C.3   174  VAL174      0.0266
     49  CG1       -9.0410   30.1640   14.1010 C.3   174  VAL174      0.0020
     50  CG2       -9.7040   29.5300   16.4270 C.3   174  VAL174      0.0020
     51  N         -6.3610   27.7190   13.9090 N.am  175  ARG175     -0.1980
     52  CA        -5.4270   27.4960   12.8070 C.3   175  ARG175      0.1597
     53  C         -5.4750   26.0530   12.3150 C.2   175  ARG175      0.2287
     54  O         -5.3470   25.7940   11.1120 O.2   175  ARG175     -0.2864
     55  CB        -4.0050   27.8650   13.2410 C.3   175  ARG175      0.0334
     56  CG        -3.5160   29.2140   12.7150 C.3   175  ARG175      0.0492
     57  CD        -2.1030   29.5660   13.2000 C.3   175  ARG175      0.2205
     58  NE        -2.0490   29.7550   14.6490 N.pl3 175  ARG175     -0.0865
     59  CZ        -1.9410   30.9290   15.2720 C.cat 175  ARG175      0.5346
     60  NH1       -1.8490   32.0710   14.5910 N.pl3 175  ARG175      0.1354
     61  NH2       -1.9090   30.9550   16.6000 N.pl3 175  ARG175      0.1354
     62  N         -8.1230   23.9790   12.4630 N.3   177  ARG177     -0.1231
     63  CA        -9.3800   23.7950   11.7420 C.3   177  ARG177      0.1694
     64  C         -9.3070   24.3700   10.3300 C.2   177  ARG177      0.2591
     65  O         -9.9100   23.8260    9.3980 O.2   177  ARG177     -0.2718
     66  CB       -10.5190   24.4440   12.5280 C.3   177  ARG177      0.0321
     67  CG       -11.8730   24.3870   11.8490 C.3   177  ARG177      0.0489
     68  CD       -12.9130   25.1570   12.6540 C.3   177  ARG177      0.2205
     69  NE       -14.1930   25.2510   11.9590 N.pl3 177  ARG177     -0.0865
     70  CZ       -14.4980   26.2080   11.0890 C.cat 177  ARG177      0.5346
     71  NH1      -13.6070   27.1510   10.8080 N.pl3 177  ARG177      0.1354
     72  NH2      -15.6880   26.2230   10.4980 N.pl3 177  ARG177      0.1354
     73  N         -8.5810   25.4790   10.1550 N.am  178  ALA178     -0.1980
     74  CA        -8.4750   26.0900    8.8330 C.3   178  ALA178      0.1597
     75  C         -7.7900   25.1620    7.8380 C.2   178  ALA178      0.2287
     76  O         -8.0950   25.2020    6.6420 O.2   178  ALA178     -0.2864
     77  CB        -7.7250   27.4200    8.9250 C.3   178  ALA178      0.0319
     78  N        -10.4350   22.0570    7.2910 N.3   181  LYS181     -0.1231
     79  CA       -11.5420   22.4730    6.4280 C.3   181  LYS181      0.1693
     80  C        -11.2410   22.2350    4.9530 C.2   181  LYS181      0.2591
     81  O        -12.1230   21.8350    4.1840 O.2   181  LYS181     -0.2718
     82  CB       -11.8430   23.9590    6.6460 C.3   181  LYS181      0.0285
     83  CG       -12.9980   24.2670    7.5690 C.3   181  LYS181      0.0035
     84  CD       -13.2810   25.7680    7.6050 C.3   181  LYS181      0.0206
     85  CE       -13.6620   26.2970    6.2270 C.3   181  LYS181      0.1093
     86  NZ       -14.0740   27.7320    6.2590 N.3   181  LYS181     -0.1314
     87  N        -10.0060   22.4920    4.5370 N.am  182  ARG182     -0.1980
     88  CA        -9.6290   22.4400    3.1330 C.3   182  ARG182      0.1597
     89  C         -9.1690   21.0610    2.6890 C.2   182  ARG182      0.2287
     90  O         -8.8550   20.8800    1.5090 O.2   182  ARG182     -0.2864
     91  CB        -8.5280   23.4640    2.8450 C.3   182  ARG182      0.0334
     92  CG        -9.0030   24.9020    2.6270 C.3   182  ARG182      0.0492
     93  CD        -9.5250   25.5520    3.9000 C.3   182  ARG182      0.2205
     94  NE        -9.0890   26.9430    4.0350 N.pl3 182  ARG182     -0.0865
     95  CZ        -9.5740   27.7960    4.9330 C.cat 182  ARG182      0.5346
     96  NH1      -10.5230   27.4080    5.7740 N.pl3 182  ARG182      0.1354
     97  NH2       -9.1180   29.0410    4.9860 N.pl3 182  ARG182      0.1354
@<TRIPOS>BOND
     1    90    89    2
     2    92    91    1
     3    92    93    1
     4    89    88    1
     5    91    88    1
     6    88    87    1
     7    40    39    2
     8    39    38    1
     9    93    94    1
    10    94    95    2
    11    28    27    2
    12    81    80    2
    13    87    80   am
    14    38    37    1
    15    38    41    1
    16    95    97    1
    17    95    96    1
    18    80    79    1
    19    41    43    1
    20    41    42    1
    21    27    26    1
    22    25    26    1
    23    26    29    1
    24    29    30    1
    25    85    86    1
    26    85    84    1
    27    79    82    1
    28    79    78    1
    29    76    75    2
    30    82    83    1
    31    32    30   ar
    32    32    34   ar
    33    30    31   ar
    34    20    19    2
    35    19    18    1
    36    34    35   ar
    37    83    84    1
    38    17    18    1
    39    75    74    1
    40    31    33   ar
    41    18    21    1
    42    35    33   ar
    43    35    36    1
    44    74    77    1
    45    74    73    1
    46     8     6   ar
    47     7     6   ar
    48    65    64    2
    49     6     5    1
    50     1     2    1
    51    21    22    1
    52    23    22    2
    53    73    64   am
    54    22    24   am
    55    64    63    1
    56     5     2    1
    57    72    70    1
    58     2     3    1
    59    71    70    1
    60    70    69    2
    61    54    53    2
    62    63    62    1
    63    63    66    1
    64    67    66    1
    65    67    68    1
    66     3     4    2
    67    69    68    1
    68    15    14   ar
    69    16    14   ar
    70    53    52    1
    71    47    46    2
    72    14    13    1
    73    56    57    1
    74    56    55    1
    75    52    55    1
    76    52    51    1
    77    57    58    1
    78    46    51   am
    79    46    45    1
    80    13    10    1
    81    49    48    1
    82    60    59    1
    83    58    59    2
    84    12    11    2
    85    10    11    1
    86    10     9    1
    87    45    48    1
    88    45    44    1
    89    59    61    1
    90    48    50    1
