@<TRIPOS>MOLECULE
tmp/6nfgA00.pdb
 163 155 0 0 0
SMALL
GASTEIGER

@<TRIPOS>ATOM
      1  N        -21.9590    7.0390  -21.6140 N.3    69  MET69      -0.1245
      2  CA       -21.3830    8.2170  -20.9730 C.3    69  MET69       0.1570
      3  C        -20.1790    7.8270  -20.1140 C.2    69  MET69       0.2261
      4  O        -20.2380    6.8700  -19.3220 O.2    69  MET69      -0.2867
      5  CB       -22.4300    8.9200  -20.1210 C.3    69  MET69       0.0387
      6  CG       -23.2770    9.8710  -20.8870 C.3    69  MET69       0.0595
      7  SD       -22.8650   11.5610  -20.4260 S.3    69  MET69      -0.1393
      8  CE       -24.4330   12.0820  -19.7780 C.3    69  MET69       0.0692
      9  N        -26.9340   27.3440  -19.6680 N.3    87  ALA87      -0.1231
     10  CA       -26.7080   25.9170  -19.8840 C.3    87  ALA87       0.1694
     11  C        -25.3040   25.6830  -20.3960 C.2    87  ALA87       0.2592
     12  O        -24.8070   24.5750  -20.2430 O.2    87  ALA87      -0.2718
     13  CB       -27.7140   25.2940  -20.8490 C.3    87  ALA87       0.0304
     14  N        -24.6880   26.6950  -21.0550 N.am   88  TYR88      -0.1976
     15  CA       -23.3460   26.6030  -21.6420 C.3    88  TYR88       0.1639
     16  C        -22.3680   27.3670  -20.8060 C.2    88  TYR88       0.2290
     17  O        -22.7140   28.4210  -20.2820 O.2    88  TYR88      -0.2864
     18  CB       -23.3310   27.0510  -23.1040 C.3    88  TYR88       0.0560
     19  CG       -24.2340   26.2190  -23.9780 C.ar   88  TYR88      -0.0198
     20  CD1      -25.5970   26.4850  -24.0590 C.ar   88  TYR88      -0.0009
     21  CD2      -23.7350   25.1370  -24.6980 C.ar   88  TYR88      -0.0009
     22  CE1      -26.4440   25.6920  -24.8330 C.ar   88  TYR88       0.0417
     23  CE2      -24.5700   24.3480  -25.4950 C.ar   88  TYR88       0.0417
     24  CZ       -25.9240   24.6300  -25.5590 C.ar   88  TYR88       0.1957
     25  OH       -26.7450   23.8610  -26.3460 O.3    88  TYR88      -0.2866
     26  N        -20.9100   18.1010  -20.4970 N.3   190  VAL190     -0.1245
     27  CA       -20.6440   17.4190  -21.7530 C.3   190  VAL190      0.1561
     28  C        -20.1740   18.4810  -22.7340 C.2   190  VAL190      0.2260
     29  O        -20.7370   19.5750  -22.7300 O.2   190  VAL190     -0.2867
     30  CB       -21.8430   16.5680  -22.2960 C.3   190  VAL190      0.0252
     31  CG1      -22.3740   15.6080  -21.2340 C.3   190  VAL190      0.0019
     32  CG2      -22.9750   17.4310  -22.8500 C.3   190  VAL190      0.0019
     33  N        -21.9070   21.9480  -21.8980 N.3   203  ARG203     -0.1231
     34  CA       -23.3090   21.9880  -21.4750 C.3   203  ARG203      0.1694
     35  C        -23.5540   21.1360  -20.2300 C.2   203  ARG203      0.2592
     36  O        -22.9520   20.0810  -20.0790 O.2   203  ARG203     -0.2718
     37  CB       -24.2340   21.5800  -22.6310 C.3   203  ARG203      0.0321
     38  CG       -25.7190   21.8420  -22.3750 C.3   203  ARG203      0.0489
     39  CD       -26.5400   21.5030  -23.5990 C.3   203  ARG203      0.2205
     40  NE       -26.5130   20.0690  -23.8950 N.pl3 203  ARG203     -0.0865
     41  CZ       -26.9120   19.5220  -25.0400 C.cat 203  ARG203      0.5346
     42  NH1      -27.3600   20.2890  -26.0330 N.pl3 203  ARG203      0.1354
     43  NH2      -26.8720   18.2030  -25.2010 N.pl3 203  ARG203      0.1354
     44  N        -24.4350   21.5980  -19.3530 N.am  204  LEU204     -0.1966
     45  CA       -24.7600   20.9000  -18.1190 C.3   204  LEU204      0.1728
     46  C        -25.5250   19.6370  -18.3900 C.2   204  LEU204      0.2617
     47  O        -26.3900   19.6070  -19.2630 O.2   204  LEU204     -0.2715
     48  CB       -25.5800   21.7880  -17.1950 C.3   204  LEU204      0.0311
     49  CG       -24.8950   22.9850  -16.6090 C.3   204  LEU204      0.0022
     50  CD1      -25.9090   23.9280  -16.1020 C.3   204  LEU204      0.0001
     51  CD2      -23.9760   22.5770  -15.4820 C.3   204  LEU204      0.0001
     52  N        -25.2140   18.5870  -17.6250 N.am  205  SER205     -0.1936
     53  CA       -25.8510   17.2870  -17.7310 C.3   205  SER205      0.2055
     54  C        -26.2510   16.7790  -16.3320 C.2   205  SER205      0.2643
     55  O        -25.4920   16.9280  -15.3560 O.2   205  SER205     -0.2714
     56  CB       -24.9510   16.3150  -18.4850 C.3   205  SER205      0.2130
     57  OG       -25.5300   15.0280  -18.5850 O.3   205  SER205     -0.2179
     58  N        -27.4810   16.2410  -16.2390 N.am  206  PHE206     -0.1959
     59  CA       -28.0680   15.6890  -15.0150 C.3   206  PHE206      0.1771
     60  C        -28.7260   14.3570  -15.3290 C.2   206  PHE206      0.2620
     61  O        -29.8240   14.0500  -14.8430 O.2   206  PHE206     -0.2715
     62  CB       -29.0730   16.6690  -14.3840 C.3   206  PHE206      0.0574
     63  CG       -28.5080   18.0300  -14.0750 C.ar  206  PHE206     -0.0200
     64  CD1      -27.7270   18.2350  -12.9460 C.ar  206  PHE206     -0.0042
     65  CD2      -28.7620   19.1110  -14.9100 C.ar  206  PHE206     -0.0042
     66  CE1      -27.2000   19.4930  -12.6690 C.ar  206  PHE206     -0.0003
     67  CE2      -28.2490   20.3690  -14.6220 C.ar  206  PHE206     -0.0003
     68  CZ       -27.4670   20.5540  -13.5080 C.ar  206  PHE206     -0.0000
     69  N        -28.0300   13.5550  -16.1420 N.am  207  SER207     -0.1950
     70  CA       -28.4500   12.2170  -16.5630 C.3   207  SER207      0.1924
     71  C        -28.7030   11.2870  -15.3800 C.2   207  SER207      0.2314
     72  O        -29.6590   10.5090  -15.4020 O.2   207  SER207     -0.2863
     73  CB       -27.4040   11.6150  -17.4900 C.3   207  SER207      0.2116
     74  OG       -27.5630   12.1930  -18.7760 O.3   207  SER207     -0.2180
     75  N        -31.9550   12.2150  -13.5650 N.3   210  GLU210     -0.1245
     76  CA       -33.0780   11.7620  -14.3920 C.3   210  GLU210      0.1567
     77  C        -33.3380   10.2890  -14.1290 C.2   210  GLU210      0.2260
     78  O        -34.4940    9.8640  -14.0620 O.2   210  GLU210     -0.2867
     79  CB       -32.7690   12.0000  -15.8780 C.3   210  GLU210      0.0388
     80  CG       -32.9120   13.4580  -16.2810 C.3   210  GLU210      0.1160
     81  CD       -32.1790   13.8790  -17.5320 C.2   210  GLU210      0.3649
     82  OE1      -31.7360   12.9810  -18.2790 O.co2 210  GLU210     -0.2457
     83  OE2      -32.0390   15.1020  -17.7660 O.co2 210  GLU210     -0.2457
     84  N        -34.8930   17.4120  -35.7930 N.3   259  LYS259     -0.1245
     85  CA       -34.4780   18.1760  -34.6110 C.3   259  LYS259      0.1561
     86  C        -35.1750   17.7270  -33.2740 C.2   259  LYS259      0.2260
     87  O        -34.7410   18.1280  -32.1940 O.2   259  LYS259     -0.2867
     88  CB       -34.6360   19.6850  -34.8660 C.3   259  LYS259      0.0271
     89  CG       -33.7100   20.2410  -35.9540 C.3   259  LYS259      0.0035
     90  CD       -33.0170   21.5490  -35.5380 C.3   259  LYS259      0.0206
     91  CE       -32.9450   22.5830  -36.6520 C.3   259  LYS259      0.1093
     92  NZ       -34.2180   23.3520  -36.8500 N.3   259  LYS259     -0.1314
     93  N        -36.0790   15.0890  -30.2820 N.3   261  SER261     -0.1217
     94  CA       -35.4350   13.9460  -29.6460 C.3   261  SER261      0.1889
     95  C        -36.2330   13.4300  -28.4810 C.2   261  SER261      0.2288
     96  O        -37.1170   14.1210  -27.9680 O.2   261  SER261     -0.2866
     97  CB       -34.0340   14.3200  -29.1680 C.3   261  SER261      0.2089
     98  OG       -34.0300   14.8570  -27.8550 O.3   261  SER261     -0.2183
     99  N        -35.2550   13.4420  -25.6400 N.3   263  TYR263     -0.1227
    100  CA       -35.0290   14.3460  -24.5220 C.3   263  TYR263      0.1736
    101  C        -36.1630   15.3710  -24.3720 C.2   263  TYR263      0.2595
    102  O        -36.4860   15.7460  -23.2390 O.2   263  TYR263     -0.2718
    103  CB       -33.6800   15.0450  -24.5890 C.3   263  TYR263      0.0548
    104  CG       -33.3360   15.6890  -23.2610 C.ar  263  TYR263     -0.0200
    105  CD1      -32.9910   14.9170  -22.1610 C.ar  263  TYR263     -0.0009
    106  CD2      -33.4330   17.0680  -23.0810 C.ar  263  TYR263     -0.0009
    107  CE1      -32.6810   15.4990  -20.9360 C.ar  263  TYR263      0.0417
    108  CE2      -33.1350   17.6610  -21.8510 C.ar  263  TYR263      0.0417
    109  CZ       -32.7550   16.8700  -20.7850 C.ar  263  TYR263      0.1957
    110  OH       -32.4690   17.4230  -19.5560 O.3   263  TYR263     -0.2866
    111  N        -36.7750   15.7940  -25.5110 N.am  264  HIS264     -0.1975
    112  CA       -37.9110   16.7000  -25.5150 C.3   264  HIS264      0.1656
    113  C        -39.1160   16.0170  -24.8520 C.2   264  HIS264      0.2291
    114  O        -39.7950   16.6220  -24.0330 O.2   264  HIS264     -0.2864
    115  CB       -38.2600   17.1320  -26.9480 C.3   264  HIS264      0.0771
    116  CG       -37.1820   17.9210  -27.6230 C.ar  264  HIS264      0.0820
    117  ND1      -36.6490   17.5110  -28.8250 N.ar  264  HIS264     -0.2267
    118  CD2      -36.5590   19.0570  -27.2320 C.ar  264  HIS264      0.1154
    119  CE1      -35.7410   18.4100  -29.1390 C.ar  264  HIS264      0.1986
    120  NE2      -35.6330   19.3450  -28.1980 N.ar  264  HIS264     -0.2212
    121  N        -36.1350   23.3460  -19.8480 N.3   309  ASN309     -0.1240
    122  CA       -35.2810   22.3120  -19.2900 C.3   309  ASN309      0.1653
    123  C        -35.7270   22.1250  -17.8150 C.2   309  ASN309      0.2266
    124  O        -35.9320   23.1160  -17.0900 O.2   309  ASN309     -0.2867
    125  CB       -33.8180   22.7550  -19.3590 C.3   309  ASN309      0.1155
    126  CG       -32.8720   21.6920  -18.8800 C.2   309  ASN309      0.2627
    127  OD1      -32.6970   21.4570  -17.6790 O.2   309  ASN309     -0.2716
    128  ND2      -32.3490   20.9470  -19.8090 N.am  309  ASN309     -0.0877
    129  N        -32.8430   23.5810  -15.6600 N.3   312  ILE312     -0.1245
    130  CA       -32.5180   24.9690  -15.9940 C.3   312  ILE312      0.1561
    131  C        -33.8030   25.6540  -16.5370 C.2   312  ILE312      0.2260
    132  O        -34.0730   25.6080  -17.7370 O.2   312  ILE312     -0.2867
    133  CB       -31.3090   24.9870  -16.9670 C.3   312  ILE312      0.0252
    134  CG1      -30.1420   24.1380  -16.3850 C.3   312  ILE312      0.0019
    135  CG2      -30.8700   26.4350  -17.2770 C.3   312  ILE312      0.0019
    136  CD1      -29.4130   23.3820  -17.3270 C.3   312  ILE312      0.0001
    137  N        -33.5750   27.9080  -19.6700 N.3   315  PHE315     -0.1241
    138  CA       -33.2430   27.2980  -20.9550 C.3   315  PHE315      0.1605
    139  C        -34.5030   26.6650  -21.6440 C.2   315  PHE315      0.2264
    140  O        -35.0790   25.7150  -21.1120 O.2   315  PHE315     -0.2867
    141  CB       -32.0920   26.2720  -20.8280 C.3   315  PHE315      0.0534
    142  CG       -31.4960   26.0060  -22.1840 C.ar  315  PHE315     -0.0203
    143  CD1      -32.0770   25.0740  -23.0490 C.ar  315  PHE315     -0.0042
    144  CD2      -30.4510   26.7920  -22.6650 C.ar  315  PHE315     -0.0042
    145  CE1      -31.6090   24.9280  -24.3700 C.ar  315  PHE315     -0.0003
    146  CE2      -29.9490   26.6000  -23.9600 C.ar  315  PHE315     -0.0003
    147  CZ       -30.5320   25.6660  -24.8030 C.ar  315  PHE315     -0.0000
    148  N        -35.8890   24.5200  -24.6300 N.3   317  LEU317     -0.1245
    149  CA       -35.5530   23.5060  -25.6450 C.3   317  LEU317      0.1561
    150  C        -36.3310   23.6840  -26.9430 C.2   317  LEU317      0.2260
    151  O        -35.8890   23.1750  -27.9780 O.2   317  LEU317     -0.2867
    152  CB       -35.7700   22.0630  -25.1330 C.3   317  LEU317      0.0270
    153  CG       -35.3200   21.6710  -23.7350 C.3   317  LEU317      0.0019
    154  CD1      -35.7190   20.2430  -23.4610 C.3   317  LEU317      0.0001
    155  CD2      -33.8180   21.8060  -23.5600 C.3   317  LEU317      0.0001
    156  N        -33.7980   27.2540  -31.9650 N.3   322  LEU322     -0.1245
    157  CA       -33.4020   25.8310  -31.9600 C.3   322  LEU322      0.1561
    158  C        -34.2240   24.9860  -32.8960 C.2   322  LEU322      0.2260
    159  O        -33.6880   24.0800  -33.5230 O.2   322  LEU322     -0.2867
    160  CB       -33.4640   25.2210  -30.5480 C.3   322  LEU322      0.0270
    161  CG       -32.7010   25.9250  -29.4480 C.3   322  LEU322      0.0019
    162  CD1      -32.9530   25.2560  -28.1150 C.3   322  LEU322      0.0001
    163  CD2      -31.2010   26.0080  -29.7700 C.3   322  LEU322      0.0001
@<TRIPOS>BOND
     1    92    91    1
     2    91    90    1
     3    89    90    1
     4    89    88    1
     5    84    85    1
     6    88    85    1
     7    85    86    1
     8   159   158    2
     9    86    87    2
    10   158   157    1
    11   156   157    1
    12   157   160    1
    13   160   161    1
    14    93    94    1
    15   163   161    1
    16    94    97    1
    17    94    95    1
    18   161   162    1
    19    97    98    1
    20   119   117   ar
    21   119   120   ar
    22   117   116   ar
    23    95    96    2
    24   120   118   ar
    25   151   150    2
    26   116   118   ar
    27   116   115    1
    28   115   112    1
    29   150   149    1
    30    25    24    1
    31    42    41    1
    32   149   152    1
    33   149   148    1
    34    99   100    1
    35    24    23   ar
    36    24    22   ar
    37   112   111    1
    38   112   113    1
    39   111   101   am
    40    23    21   ar
    41    43    41    1
    42   152   153    1
    43    41    40    2
    44   113   114    2
    45    22    20   ar
    46   147   145   ar
    47   147   146   ar
    48    21    19   ar
    49   103   100    1
    50   103   104    1
    51   100   101    1
    52   101   102    2
    53   145   143   ar
    54    20    19   ar
    55    19    18    1
    56   146   144   ar
    57    40    39    1
    58   153   155    1
    59   153   154    1
    60    39    38    1
    61   104   106   ar
    62   104   105   ar
    63    18    15    1
    64   106   108   ar
    65   143   142   ar
    66    32    30    1
    67    28    29    2
    68    28    27    1
    69   144   142   ar
    70    37    38    1
    71    37    34    1
    72    30    27    1
    73    30    31    1
    74   142   141    1
    75   105   107   ar
    76    33    34    1
    77   108   109   ar
    78    27    26    1
    79   139   140    2
    80   139   138    1
    81    15    14    1
    82    15    16    1
    83     1     2    1
    84    34    35    1
    85    14    11   am
    86     2     5    1
    87     2     3    1
    88   138   141    1
    89   138   137    1
    90   107   109   ar
    91     6     7    1
    92     6     5    1
    93    13    10    1
    94    16    17    2
    95   109   110    1
    96     7     8    1
    97    11    12    2
    98    11    10    1
    99    35    36    2
   100    35    44   am
   101     3     4    2
   102    10     9    1
   103   121   122    1
   104   128   126   am
   105   125   122    1
   106   125   126    1
   107    44    45    1
   108   122   123    1
   109    47    46    2
   110   126   127    2
   111    74    73    1
   112    57    56    1
   113    56    53    1
   114    46    45    1
   115    46    52   am
   116    82    81   ar
   117    45    48    1
   118   123   124    2
   119    83    81   ar
   120   132   131    2
   121    53    52    1
   122    53    54    1
   123    81    80    1
   124    73    70    1
   125   136   134    1
   126   135   133    1
   127    48    49    1
   128   133   134    1
   129   133   130    1
   130    49    50    1
   131    49    51    1
   132    70    69    1
   133    70    71    1
   134   131   130    1
   135    54    58   am
   136    54    55    2
   137    80    79    1
   138    58    59    1
   139    69    60   am
   140   130   129    1
   141    79    76    1
   142    72    71    2
   143    60    59    1
   144    60    61    2
   145    59    62    1
   146    65    67   ar
   147    65    63   ar
   148    67    68   ar
   149    76    77    1
   150    76    75    1
   151    62    63    1
   152    77    78    2
   153    63    64   ar
   154    68    66   ar
   155    64    66   ar
