@<TRIPOS>MOLECULE
tmp/6nfhA00.pdb
 178 168 0 0 0
SMALL
GASTEIGER

@<TRIPOS>ATOM
      1  N         23.9850   -4.5440   -2.2410 N.3    18  LYS18      -0.1231
      2  CA        24.9400   -3.4890   -2.6560 C.3    18  LYS18       0.1693
      3  C         25.3090   -2.5900   -1.4800 C.2    18  LYS18       0.2592
      4  O         24.5220   -2.4070   -0.5710 O.2    18  LYS18      -0.2718
      5  CB        24.3280   -2.6360   -3.7840 C.3    18  LYS18       0.0285
      6  CG        25.3220   -1.7780   -4.5500 C.3    18  LYS18       0.0035
      7  CD        24.6170   -0.8570   -5.5420 C.3    18  LYS18       0.0206
      8  CE        25.5270    0.2710   -6.0130 C.3    18  LYS18       0.1093
      9  NZ        24.7540    1.3580   -6.6820 N.3    18  LYS18      -0.1314
     10  N         26.5140   -2.0220   -1.5040 N.am   19  GLU19      -0.1966
     11  CA        26.9010   -0.9870   -0.5510 C.3    19  GLU19       0.1733
     12  C         26.5370    0.3710   -1.1530 C.2    19  GLU19       0.2616
     13  O         26.9370    0.6800   -2.2700 O.2    19  GLU19      -0.2715
     14  CB        28.3910   -1.0500   -0.2240 C.3    19  GLU19       0.0429
     15  CG        28.7990   -0.0680    0.8650 C.3    19  GLU19       0.1163
     16  CD        30.0960   -0.4320    1.5820 C.2    19  GLU19       0.3649
     17  OE1       30.2520   -1.5960    2.0380 O.co2  19  GLU19      -0.2457
     18  OE2       30.9540    0.4680    1.7190 O.co2  19  GLU19      -0.2457
     19  N         25.7600    1.1550   -0.4160 N.am   20  LEU20      -0.1963
     20  CA        25.3490    2.5040   -0.8450 C.3    20  LEU20       0.1728
     21  C         26.3910    3.5720   -0.5700 C.2    20  LEU20       0.2617
     22  O         26.5180    4.5200   -1.3390 O.2    20  LEU20      -0.2715
     23  CB        24.0360    2.8890   -0.1900 C.3    20  LEU20       0.0311
     24  CG        22.8860    1.9660   -0.5800 C.3    20  LEU20       0.0022
     25  CD1       21.6170    2.3980    0.1300 C.3    20  LEU20       0.0001
     26  CD2       22.6520    1.8930   -2.1060 C.3    20  LEU20       0.0001
     27  N         27.1110    3.4150    0.5310 N.am   21  GLY21      -0.1940
     28  CA        28.1100    4.3790    0.9820 C.3    21  GLY21       0.2014
     29  C         28.2400    4.3770    2.4830 C.2    21  GLY21       0.2640
     30  O         27.6630    3.5300    3.1760 O.2    21  GLY21      -0.2714
     31  N         29.0280    5.3230    2.9820 N.am   22  THR22      -0.1936
     32  CA        29.2310    5.4850    4.3980 C.3    22  THR22       0.2028
     33  C         28.6600    6.8250    4.8150 C.2    22  THR22       0.2642
     34  O         28.9280    7.8520    4.1720 O.2    22  THR22      -0.2714
     35  CB        30.7190    5.4030    4.7570 C.3    22  THR22       0.1808
     36  OG1       31.1590    4.0480    4.6060 O.3    22  THR22      -0.2208
     37  CG2       30.9690    5.8630    6.1940 C.3    22  THR22       0.0379
     38  N         27.8500    6.7870    5.8690 N.am   23  GLY23      -0.1954
     39  CA        27.3560    7.9730    6.5460 C.3    23  GLY23       0.1869
     40  C         28.0550    8.1200    7.8830 C.2    23  GLY23       0.2309
     41  O         29.0870    7.4910    8.1350 O.2    23  GLY23      -0.2863
     42  N         26.0540    1.9470    4.9060 N.3    28  VAL28      -0.1245
     43  CA        24.6290    1.7480    4.5960 C.3    28  VAL28       0.1561
     44  C         24.5680    0.8640    3.3490 C.2    28  VAL28       0.2260
     45  O         25.2760    1.1030    2.3650 O.2    28  VAL28      -0.2867
     46  CB        23.8720    3.0630    4.3430 C.3    28  VAL28       0.0252
     47  CG1       22.4040    2.7570    4.1490 C.3    28  VAL28       0.0019
     48  CG2       24.0270    4.0360    5.5100 C.3    28  VAL28       0.0019
     49  N         16.8220   -0.3050    2.7880 N.3    40  ALA40      -0.1245
     50  CA        18.1650    0.1740    3.1190 C.3    40  ALA40       0.1562
     51  C         18.4940   -0.3030    4.5380 C.2    40  ALA40       0.2260
     52  O         17.6130   -0.3610    5.3910 O.2    40  ALA40      -0.2867
     53  CB        18.2160    1.6950    3.0470 C.3    40  ALA40       0.0290
     54  N         21.1510    0.6970    7.5910 N.3    42  LYS42      -0.1245
     55  CA        22.2340    1.4350    8.2790 C.3    42  LYS42       0.1561
     56  C         22.8870    0.4310    9.1860 C.2    42  LYS42       0.2260
     57  O         22.2590   -0.1120   10.0810 O.2    42  LYS42      -0.2867
     58  CB        21.7170    2.5790    9.1710 C.3    42  LYS42       0.0271
     59  CG        21.0450    3.7470    8.5070 C.3    42  LYS42       0.0035
     60  CD        20.6360    4.7920    9.5650 C.3    42  LYS42       0.0206
     61  CE        19.8620    5.9690    9.0050 C.3    42  LYS42       0.1093
     62  NZ        20.6610    6.7430    8.0370 N.3    42  LYS42      -0.1314
     63  N         10.7230    9.1610    4.6230 N.3    70  VAL70      -0.1245
     64  CA        11.3630    7.8430    4.4380 C.3    70  VAL70       0.1561
     65  C         11.0040    6.9650    5.6420 C.2    70  VAL70       0.2260
     66  O         11.3000    7.3250    6.7910 O.2    70  VAL70      -0.2867
     67  CB        12.8990    7.9890    4.2980 C.3    70  VAL70       0.0252
     68  CG1       13.5780    6.6040    4.2620 C.3    70  VAL70       0.0019
     69  CG2       13.2730    8.8390    3.0660 C.3    70  VAL70       0.0019
     70  N         15.2870    0.8510    6.7250 N.3    86  THR86      -0.1203
     71  CA        14.4310    1.9000    6.1900 C.3    86  THR86       0.1994
     72  C         13.9410    1.5960    4.7710 C.2    86  THR86       0.2618
     73  O         14.4150    0.6780    4.0970 O.2    86  THR86      -0.2717
     74  CB        15.1300    3.2880    6.1450 C.3    86  THR86       0.1784
     75  OG1       15.9060    3.3980    4.9460 O.3    86  THR86      -0.2211
     76  CG2       16.0190    3.5050    7.3590 C.3    86  THR86       0.0376
     77  N         12.9390    2.3850    4.3540 N.am   87  GLU87      -0.1965
     78  CA        12.5010    2.4530    2.9750 C.3    87  GLU87       0.1733
     79  C         13.7160    2.7550    2.1120 C.2    87  GLU87       0.2616
     80  O         14.5590    3.5610    2.5090 O.2    87  GLU87      -0.2715
     81  CB        11.4580    3.5710    2.8600 C.3    87  GLU87       0.0429
     82  CG        11.0660    3.9790    1.4630 C.3    87  GLU87       0.1163
     83  CD         9.8990    4.9600    1.4450 C.2    87  GLU87       0.3649
     84  OE1        9.5040    5.4690    2.5280 O.co2  87  GLU87      -0.2457
     85  OE2        9.3800    5.2080    0.3320 O.co2  87  GLU87      -0.2457
     86  N         13.8000    2.1110    0.9480 N.am   88  TYR88      -0.1960
     87  CA        14.9020    2.3010    0.0110 C.3    88  TYR88       0.1771
     88  C         14.5520    3.3460   -1.0400 C.2    88  TYR88       0.2619
     89  O         13.4650    3.3000   -1.6090 O.2    88  TYR88      -0.2715
     90  CB        15.2400    0.9850   -0.6860 C.3    88  TYR88       0.0574
     91  CG        16.2950    1.1360   -1.7430 C.ar   88  TYR88      -0.0198
     92  CD1       17.5930    1.5550   -1.4160 C.ar   88  TYR88      -0.0009
     93  CD2       16.0040    0.8810   -3.0920 C.ar   88  TYR88      -0.0009
     94  CE1       18.5860    1.7110   -2.4100 C.ar   88  TYR88       0.0417
     95  CE2       16.9900    1.0300   -4.0720 C.ar   88  TYR88       0.0417
     96  CZ        18.2750    1.4240   -3.7220 C.ar   88  TYR88       0.1957
     97  OH        19.2340    1.5670   -4.6940 O.3    88  TYR88      -0.2866
     98  N         15.4870    4.2560   -1.3070 N.am   89  MET89      -0.1963
     99  CA        15.3050    5.3570   -2.2310 C.3    89  MET89       0.1736
    100  C         16.3780    5.2530   -3.3090 C.2    89  MET89       0.2616
    101  O         17.5480    5.5090   -3.0690 O.2    89  MET89      -0.2715
    102  CB        15.4190    6.6680   -1.4820 C.3    89  MET89       0.0427
    103  CG        14.4270    6.8210   -0.3410 C.3    89  MET89       0.0599
    104  SD        12.7570    7.0600   -0.8580 S.3    89  MET89      -0.1393
    105  CE        12.9180    8.7850   -1.3230 C.3    89  MET89       0.0692
    106  N         15.9730    4.8130   -4.4960 N.am   90  ALA90      -0.1963
    107  CA        16.9530    4.4060   -5.5070 C.3    90  ALA90       0.1728
    108  C         17.8540    5.4880   -6.0730 C.2    90  ALA90       0.2616
    109  O         18.9670    5.1850   -6.5010 O.2    90  ALA90      -0.2715
    110  CB        16.2640    3.6930   -6.6560 C.3    90  ALA90       0.0334
    111  N         17.3830    6.7420   -6.0680 N.am   91  ASN91      -0.1958
    112  CA        18.1390    7.8600   -6.6500 C.3    91  ASN91       0.1819
    113  C         19.0150    8.6510   -5.6850 C.2    91  ASN91       0.2622
    114  O         19.5900    9.6760   -6.0490 O.2    91  ASN91      -0.2715
    115  CB        17.2090    8.7430   -7.4720 C.3    91  ASN91       0.1195
    116  CG        17.1080    8.2450   -8.8850 C.2    91  ASN91       0.2630
    117  OD1       18.1160    7.7970   -9.4280 O.2    91  ASN91      -0.2716
    118  ND2       15.9110    8.2510   -9.4680 N.am   91  ASN91      -0.0877
    119  N         19.1430    8.1460   -4.4610 N.am   92  GLY92      -0.1940
    120  CA        20.1480    8.6530   -3.5260 C.3    92  GLY92       0.2014
    121  C         19.8320    9.9790   -2.8670 C.2    92  GLY92       0.2639
    122  O         18.6720   10.3970   -2.7870 O.2    92  GLY92      -0.2714
    123  N         20.8560   10.6260   -2.3190 N.am   93  CYS93      -0.1967
    124  CA        20.6010   11.8320   -1.5460 C.3    93  CYS93       0.1712
    125  C         20.3200   12.9990   -2.4860 C.2    93  CYS93       0.2296
    126  O         20.8780   13.0910   -3.5870 O.2    93  CYS93      -0.2864
    127  CB        21.7310   12.1580   -0.5840 C.3    93  CYS93       0.0983
    128  SG        23.1720   12.7570   -1.3920 S.3    93  CYS93      -0.0798
    129  N         23.3290   15.3770   -3.8170 N.3    96  ASN96      -0.1240
    130  CA        23.9870   14.8360   -4.9930 C.3    96  ASN96       0.1653
    131  C         23.1230   14.9110   -6.2750 C.2    96  ASN96       0.2266
    132  O         23.6100   15.2640   -7.3390 O.2    96  ASN96      -0.2867
    133  CB        24.4960   13.4040   -4.7230 C.3    96  ASN96       0.1155
    134  CG        25.5790   13.3470   -3.6260 C.2    96  ASN96       0.2627
    135  OD1       26.3390   14.2990   -3.4170 O.2    96  ASN96      -0.2716
    136  ND2       25.6390   12.2210   -2.9190 N.am   96  ASN96      -0.0877
    137  N         23.9460   17.0840  -10.0610 N.3   100  GLU100     -0.1245
    138  CA        24.0940   16.4320  -11.3580 C.3   100  GLU100      0.1567
    139  C         23.4130   17.3020  -12.4160 C.2   100  GLU100      0.2260
    140  O         22.1870   17.2580  -12.5310 O.2   100  GLU100     -0.2867
    141  CB        23.4540   15.0270  -11.3160 C.3   100  GLU100      0.0388
    142  CG        24.1960   14.0420  -10.4140 C.3   100  GLU100      0.1160
    143  CD        23.4700   12.6970  -10.1770 C.2   100  GLU100      0.3649
    144  OE1       22.2110   12.6300  -10.0890 O.co2 100  GLU100     -0.2457
    145  OE2       24.1910   11.6790  -10.0460 O.co2 100  GLU100     -0.2457
    146  N         21.0290   17.3650    2.4460 N.3   137  ARG137     -0.1245
    147  CA        21.8030   16.1390    2.6750 C.3   137  ARG137      0.1563
    148  C         20.9680   15.0600    3.4160 C.2   137  ARG137      0.2260
    149  O         21.3480   13.8670    3.4020 O.2   137  ARG137     -0.2867
    150  CB        23.0900   16.4200    3.4670 C.3   137  ARG137      0.0307
    151  CG        22.8260   16.9130    4.8800 C.3   137  ARG137      0.0489
    152  CD        24.1040   17.1770    5.6900 C.3   137  ARG137      0.2205
    153  NE        23.7350   17.9030    6.9070 N.pl3 137  ARG137     -0.0865
    154  CZ        23.5160   19.2180    6.9880 C.cat 137  ARG137      0.5346
    155  NH1       23.6820   20.0140    5.9480 N.pl3 137  ARG137      0.1354
    156  NH2       23.1330   19.7400    8.1300 N.pl3 137  ARG137      0.1354
    157  N         16.1860   12.2880    0.4630 N.3   140  LEU140     -0.1245
    158  CA        16.4650   11.2190   -0.4980 C.3   140  LEU140      0.1561
    159  C         15.4710   11.3140   -1.6460 C.2   140  LEU140      0.2260
    160  O         14.3810   11.9000   -1.5090 O.2   140  LEU140     -0.2867
    161  CB        16.3890    9.8440    0.1950 C.3   140  LEU140      0.0270
    162  CG        17.4890    9.5450    1.2310 C.3   140  LEU140      0.0019
    163  CD1       17.1500    8.3530    2.1260 C.3   140  LEU140      0.0001
    164  CD2       18.8050    9.3100    0.5460 C.3   140  LEU140      0.0001
    165  N         14.3240   12.2510    5.4060 N.3   150  SER150     -0.1202
    166  CA        14.8810   11.1280    6.1340 C.3   150  SER150      0.2020
    167  C         15.5530   11.5810    7.4300 C.2   150  SER150      0.2618
    168  O         15.7640   12.7760    7.6710 O.2   150  SER150     -0.2717
    169  CB        15.8870   10.3820    5.2600 C.3   150  SER150      0.2103
    170  OG        16.1100    9.0790    5.7610 O.3   150  SER150     -0.2182
    171  N         15.8560   10.6040    8.2780 N.am  151  ASP151     -0.1973
    172  CA        16.6370   10.8360    9.5070 C.3   151  ASP151      0.1709
    173  C         16.0660   11.8800   10.4620 C.2   151  ASP151      0.2293
    174  O         16.8060   12.5250   11.2110 O.2   151  ASP151     -0.2864
    175  CB        18.1050   11.1200    9.1440 C.3   151  ASP151      0.1436
    176  CG        18.8500    9.8600    8.6230 C.2   151  ASP151      0.3671
    177  OD1       18.2740    8.7470    8.5380 O.co2 151  ASP151     -0.2456
    178  OD2       20.0460    9.9920    8.3190 O.co2 151  ASP151     -0.2456
@<TRIPOS>BOND
     1   140   139    2
     2   139   138    1
     3   138   141    1
     4   138   137    1
     5   141   142    1
     6   142   143    1
     7   143   144   ar
     8   143   145   ar
     9   118   116   am
    10   117   116    2
    11   116   115    1
    12   115   112    1
    13   132   131    2
    14     9     8    1
    15   110   107    1
    16   112   111    1
    17   112   113    1
    18   109   108    2
    19   131   130    1
    20   108   111   am
    21   108   107    1
    22   114   113    2
    23     8     7    1
    24   113   119   am
    25     7     6    1
    26   107   106    1
    27   130   133    1
    28   130   129    1
    29   133   134    1
    30    97    96    1
    31     6     5    1
    32   106   100   am
    33   119   120    1
    34    95    96   ar
    35    95    93   ar
    36     5     2    1
    37    96    94   ar
    38   134   135    2
    39   134   136   am
    40   126   125    2
    41   120   121    1
    42   100   101    2
    43   100    99    1
    44    93    91   ar
    45   121   122    2
    46   121   123   am
    47     2     1    1
    48     2     3    1
    49   125   124    1
    50    94    92   ar
    51   123   124    1
    52    13    12    2
    53    99   102    1
    54    99    98    1
    55    26    24    1
    56    91    92   ar
    57    91    90    1
    58   159   160    2
    59   159   158    1
    60    89    88    2
    61   124   127    1
    62    10     3   am
    63    10    11    1
    64   102   103    1
    65     3     4    2
    66   128   127    1
    67    22    21    2
    68   105   104    1
    69    98    88   am
    70    12    11    1
    71    12    19   am
    72    88    87    1
    73   104   103    1
    74    20    21    1
    75    20    19    1
    76    20    23    1
    77    90    87    1
    78    24    23    1
    79    24    25    1
    80    21    27   am
    81    11    14    1
    82   158   161    1
    83   158   157    1
    84    14    15    1
    85    87    86    1
    86   161   162    1
    87    85    83   ar
    88    27    28    1
    89   164   162    1
    90    15    16    1
    91    86    79   am
    92    28    29    1
    93   162   163    1
    94    83    82    1
    95    83    84   ar
    96    82    81    1
    97    16    18   ar
    98    16    17   ar
    99    79    80    2
   100    79    78    1
   101    45    44    2
   102   146   147    1
   103    29    31   am
   104    29    30    2
   105   147   148    1
   106   147   150    1
   107    49    50    1
   108    81    78    1
   109    78    77    1
   110    31    32    1
   111    53    50    1
   112    69    67    1
   113    50    51    1
   114    44    43    1
   115   149   148    2
   116   150   151    1
   117    73    72    2
   118    47    46    1
   119    34    33    2
   120    68    67    1
   121    67    64    1
   122    46    43    1
   123    46    48    1
   124    77    72   am
   125    32    35    1
   126    32    33    1
   127    64    63    1
   128    64    65    1
   129    51    52    2
   130    43    42    1
   131    36    35    1
   132    35    37    1
   133    72    71    1
   134    33    38   am
   135   151   152    1
   136    75    74    1
   137   169   170    1
   138   169   166    1
   139   165   166    1
   140    65    66    2
   141   152   153    1
   142    38    39    1
   143   155   154    1
   144   166   167    1
   145    74    71    1
   146    74    76    1
   147    71    70    1
   148    39    40    1
   149   153   154    2
   150   154   156    1
   151   167   168    2
   152   167   171   am
   153    54    55    1
   154    40    41    2
   155    62    61    1
   156   171   172    1
   157    55    58    1
   158    55    56    1
   159   178   176   ar
   160    59    58    1
   161    59    60    1
   162   177   176   ar
   163   176   175    1
   164    61    60    1
   165   175   172    1
   166    56    57    2
   167   172   173    1
   168   173   174    2
