@<TRIPOS>MOLECULE
tmp/6nfiA00.pdb
 172 162 0 0 0
SMALL
GASTEIGER

@<TRIPOS>ATOM
      1  N        -21.0280    4.6000  -22.9550 N.3    15  LYS15      -0.1245
      2  CA       -22.1070    3.6250  -23.1740 C.3    15  LYS15       0.1561
      3  C        -22.3910    2.7720  -21.9360 C.2    15  LYS15       0.2260
      4  O        -21.4950    2.5270  -21.1220 O.2    15  LYS15      -0.2867
      5  CB       -21.7600    2.7090  -24.3540 C.3    15  LYS15       0.0271
      6  CG       -22.8800    1.8610  -24.8960 C.3    15  LYS15       0.0035
      7  CD       -22.5220    1.1770  -26.2090 C.3    15  LYS15       0.0206
      8  CE       -21.4950    0.0710  -26.0180 C.3    15  LYS15       0.1093
      9  NZ       -21.2670   -0.6980  -27.2720 N.3    15  LYS15      -0.1314
     10  N        -23.2100   -0.8680  -20.4230 N.3    17  LEU17      -0.1231
     11  CA       -22.9380   -2.2680  -20.7670 C.3    17  LEU17       0.1693
     12  C        -24.0290   -3.1880  -20.2230 C.2    17  LEU17       0.2593
     13  O        -24.6680   -3.9190  -20.9830 O.2    17  LEU17      -0.2718
     14  CB       -21.5710   -2.7010  -20.2260 C.3    17  LEU17       0.0284
     15  CG       -20.3670   -1.8720  -20.6870 C.3    17  LEU17       0.0019
     16  CD1      -19.1150   -2.2780  -19.9250 C.3    17  LEU17       0.0001
     17  CD2      -20.1550   -2.0060  -22.1880 C.3    17  LEU17       0.0001
     18  N        -24.2350   -3.1430  -18.9090 N.am   18  GLY18      -0.1942
     19  CA       -25.2230   -4.0010  -18.2470 C.3    18  GLY18       0.2014
     20  C        -25.4510   -3.6620  -16.7830 C.2    18  GLY18       0.2639
     21  O        -25.1030   -2.5650  -16.3320 O.2    18  GLY18      -0.2714
     22  N        -26.0470   -4.6080  -16.0520 N.am   19  THR19      -0.1950
     23  CA       -26.3680   -4.4460  -14.6250 C.3    19  THR19       0.1897
     24  C        -26.1560   -5.7590  -13.8600 C.2    19  THR19       0.2313
     25  O        -27.0520   -6.6020  -13.7680 O.2    19  THR19      -0.2863
     26  CB       -27.8200   -3.9450  -14.4260 C.3    19  THR19       0.1794
     27  OG1      -28.0300   -2.7500  -15.1880 O.3    19  THR19      -0.2208
     28  CG2      -28.1020   -3.6570  -12.9540 C.3    19  THR19       0.0378
     29  N        -22.8510   -1.1820  -14.8880 N.3    21  VAL21      -0.1245
     30  CA       -21.4930   -1.0550  -15.4300 C.3    21  VAL21       0.1561
     31  C        -21.5430   -0.3260  -16.7690 C.2    21  VAL21       0.2260
     32  O        -22.3710   -0.6570  -17.6220 O.2    21  VAL21      -0.2867
     33  CB       -20.8420   -2.4350  -15.6510 C.3    21  VAL21       0.0252
     34  CG1      -19.4160   -2.2790  -16.1560 C.3    21  VAL21       0.0019
     35  CG2      -20.8630   -3.2500  -14.3650 C.3    21  VAL21       0.0019
     36  N        -13.8630    0.2030  -17.9820 N.3    33  ALA33      -0.1231
     37  CA       -15.2000   -0.1240  -17.5010 C.3    33  ALA33       0.1694
     38  C        -15.3970    0.5860  -16.1640 C.2    33  ALA33       0.2592
     39  O        -14.4600    0.6830  -15.3670 O.2    33  ALA33      -0.2718
     40  CB       -15.3550   -1.6180  -17.3370 C.3    33  ALA33       0.0304
     41  N        -16.6120    1.0800  -15.9300 N.am   34  ILE34      -0.1966
     42  CA       -16.9360    1.8640  -14.7360 C.3    34  ILE34       0.1727
     43  C        -18.1870    1.2780  -14.0800 C.2    34  ILE34       0.2616
     44  O        -19.2720    1.3290  -14.6650 O.2    34  ILE34      -0.2715
     45  CB       -17.1850    3.3510  -15.0820 C.3    34  ILE34       0.0290
     46  CG1      -16.0180    3.9310  -15.8900 C.3    34  ILE34       0.0022
     47  CG2      -17.3950    4.1640  -13.8110 C.3    34  ILE34       0.0023
     48  CD1      -16.2170    5.3710  -16.3100 C.3    34  ILE34       0.0001
     49  N        -18.0220    0.7280  -12.8740 N.am   35  LYS35      -0.1977
     50  CA       -19.1200    0.1200  -12.1150 C.3    35  LYS35       0.1596
     51  C        -19.6980    1.1090  -11.1050 C.2    35  LYS35       0.2287
     52  O        -18.9740    1.5920  -10.2390 O.2    35  LYS35      -0.2864
     53  CB       -18.6270   -1.1260  -11.3730 C.3    35  LYS35       0.0298
     54  CG       -19.7340   -1.9710  -10.7460 C.3    35  LYS35       0.0038
     55  CD       -19.1620   -3.1310   -9.9480 C.3    35  LYS35       0.0206
     56  CE       -20.2560   -3.9020   -9.2270 C.3    35  LYS35       0.1093
     57  NZ       -21.2400   -4.4960  -10.1750 N.3    35  LYS35      -0.1314
     58  N         -8.6340   -6.6080   -4.8810 N.3    51  MET51      -0.1245
     59  CA        -8.3330   -5.9930   -6.1890 C.3    51  MET51       0.1570
     60  C         -7.0120   -5.2110   -6.2240 C.2    51  MET51       0.2261
     61  O         -6.2980   -5.2290   -7.2300 O.2    51  MET51      -0.2867
     62  CB        -9.4800   -5.0700   -6.6190 C.3    51  MET51       0.0387
     63  CG       -10.7790   -5.7960   -6.9420 C.3    51  MET51       0.0595
     64  SD       -12.0340   -4.7080   -7.6500 S.3    51  MET51      -0.1393
     65  CE       -12.3720   -3.6080   -6.2760 C.3    51  MET51       0.0692
     66  N         -8.6560   -9.5430  -14.5360 N.3    60  VAL60      -0.1245
     67  CA        -9.1830   -8.2150  -14.8660 C.3    60  VAL60       0.1561
     68  C         -8.5290   -7.2050  -13.9230 C.2    60  VAL60       0.2260
     69  O         -8.6520   -7.3280  -12.7000 O.2    60  VAL60      -0.2867
     70  CB       -10.7240   -8.1430  -14.7300 C.3    60  VAL60       0.0252
     71  CG1      -11.2250   -6.7260  -14.9690 C.3    60  VAL60       0.0019
     72  CG2      -11.4000   -9.1050  -15.6980 C.3    60  VAL60       0.0019
     73  N        -15.8820    1.9480   -9.2260 N.3    72  ILE72      -0.1245
     74  CA       -14.6950    1.1030   -9.3880 C.3    72  ILE72       0.1561
     75  C        -14.3370    1.0860  -10.8780 C.2    72  ILE72       0.2260
     76  O        -15.1560    0.6840  -11.7130 O.2    72  ILE72      -0.2867
     77  CB       -14.9280   -0.3460   -8.9160 C.3    72  ILE72       0.0252
     78  CG1      -15.3880   -0.3870   -7.4560 C.3    72  ILE72       0.0019
     79  CG2      -13.6500   -1.1610   -9.0740 C.3    72  ILE72       0.0019
     80  CD1      -15.7010   -1.7850   -6.9590 C.3    72  ILE72       0.0001
     81  N        -11.8890   -0.2040  -13.9930 N.3    74  THR74      -0.1203
     82  CA       -11.0280   -1.3180  -14.4190 C.3    74  THR74       0.1994
     83  C        -10.6590   -1.2710  -15.9030 C.2    74  THR74       0.2618
     84  O        -11.2250   -0.5110  -16.6880 O.2    74  THR74      -0.2717
     85  CB       -11.6820   -2.6990  -14.1620 C.3    74  THR74       0.1784
     86  OG1      -12.8120   -2.8770  -15.0290 O.3    74  THR74      -0.2211
     87  CG2      -12.1190   -2.8420  -12.7150 C.3    74  THR74       0.0376
     88  N         -9.6880   -2.1100  -16.2480 N.am   75  GLU75      -0.1965
     89  CA        -9.4000   -2.5440  -17.6170 C.3    75  GLU75       0.1733
     90  C        -10.6800   -2.8530  -18.4040 C.2    75  GLU75       0.2616
     91  O        -11.5960   -3.4850  -17.8710 O.2    75  GLU75      -0.2715
     92  CB        -8.5430   -3.8130  -17.5130 C.3    75  GLU75       0.0429
     93  CG        -8.1650   -4.5200  -18.8030 C.3    75  GLU75       0.1163
     94  CD        -7.4240   -5.8230  -18.5560 C.2    75  GLU75       0.3649
     95  OE1       -7.2210   -6.2230  -17.3850 O.co2  75  GLU75      -0.2457
     96  OE2       -7.0460   -6.4600  -19.5540 O.co2  75  GLU75      -0.2457
     97  N        -10.7350   -2.3970  -19.6570 N.am   76  TYR76      -0.1960
     98  CA       -11.8730   -2.6620  -20.5450 C.3    76  TYR76       0.1771
     99  C        -11.6260   -3.9110  -21.3890 C.2    76  TYR76       0.2619
    100  O        -10.5280   -4.1120  -21.9050 O.2    76  TYR76      -0.2715
    101  CB       -12.1590   -1.4640  -21.4620 C.3    76  TYR76       0.0574
    102  CG       -13.3900   -1.6510  -22.3380 C.ar   76  TYR76      -0.0198
    103  CD1      -14.6490   -1.8770  -21.7680 C.ar   76  TYR76      -0.0009
    104  CD2      -13.2980   -1.6120  -23.7320 C.ar   76  TYR76      -0.0009
    105  CE1      -15.7750   -2.0620  -22.5570 C.ar   76  TYR76       0.0417
    106  CE2      -14.4230   -1.7850  -24.5310 C.ar   76  TYR76       0.0417
    107  CZ       -15.6590   -2.0130  -23.9390 C.ar   76  TYR76       0.1957
    108  OH       -16.7770   -2.1900  -24.7210 O.3    76  TYR76      -0.2866
    109  N        -12.6910   -4.6900  -21.5720 N.am   77  MET77      -0.1963
    110  CA       -12.6670   -6.0370  -22.1390 C.3    77  MET77       0.1736
    111  C        -13.7330   -6.0710  -23.2460 C.2    77  MET77       0.2616
    112  O        -14.8810   -6.4580  -23.0120 O.2    77  MET77      -0.2715
    113  CB       -12.9650   -7.0840  -21.0530 C.3    77  MET77       0.0427
    114  CG       -12.0230   -7.0620  -19.8510 C.3    77  MET77       0.0599
    115  SD       -10.3410   -7.6390  -20.1760 S.3    77  MET77      -0.1393
    116  CE       -10.6140   -9.3910  -20.4180 C.3    77  MET77       0.0692
    117  N        -13.3330   -5.6440  -24.4450 N.am   78  ALA78      -0.1963
    118  CA       -14.2610   -5.2860  -25.5380 C.3    78  ALA78       0.1728
    119  C        -15.2970   -6.3500  -25.9170 C.2    78  ALA78       0.2616
    120  O        -16.4340   -6.0110  -26.2340 O.2    78  ALA78      -0.2715
    121  CB       -13.4780   -4.8620  -26.7730 C.3    78  ALA78       0.0334
    122  N        -14.9080   -7.6210  -25.8680 N.am   79  ASN79      -0.1958
    123  CA       -15.8020   -8.7340  -26.2430 C.3    79  ASN79       0.1819
    124  C        -16.7410   -9.2300  -25.1330 C.2    79  ASN79       0.2622
    125  O        -17.4500  -10.2200  -25.3230 O.2    79  ASN79      -0.2715
    126  CB       -14.9810   -9.9000  -26.8240 C.3    79  ASN79       0.1195
    127  CG       -14.5870   -9.6640  -28.2670 C.2    79  ASN79       0.2630
    128  OD1      -15.4420   -9.4210  -29.1120 O.2    79  ASN79      -0.2716
    129  ND2      -13.2900   -9.7380  -28.5570 N.am   79  ASN79      -0.0877
    130  N        -16.7430   -8.5540  -23.9850 N.am   80  GLY80      -0.1940
    131  CA       -17.7270   -8.8040  -22.9370 C.3    80  GLY80       0.2014
    132  C        -17.5150  -10.1060  -22.1960 C.2    80  GLY80       0.2639
    133  O        -16.3810  -10.5860  -22.0900 O.2    80  GLY80      -0.2714
    134  N        -18.6030  -10.6800  -21.6780 N.am   81  CYS81      -0.1967
    135  CA       -18.5200  -11.8880  -20.8540 C.3    81  CYS81       0.1712
    136  C        -18.2640  -13.1130  -21.7290 C.2    81  CYS81       0.2296
    137  O        -18.7320  -13.1800  -22.8610 O.2    81  CYS81      -0.2864
    138  CB       -19.7910  -12.0680  -20.0160 C.3    81  CYS81       0.0983
    139  SG       -21.1060  -13.0190  -20.8070 S.3    81  CYS81      -0.0798
    140  N        -21.3720  -15.4800  -23.2330 N.3    84  ASN84      -0.1240
    141  CA       -22.0000  -14.8990  -24.4250 C.3    84  ASN84       0.1653
    142  C        -21.0720  -14.8930  -25.6500 C.2    84  ASN84       0.2266
    143  O        -21.5310  -15.0780  -26.7810 O.2    84  ASN84      -0.2867
    144  CB       -22.4850  -13.4680  -24.1370 C.3    84  ASN84       0.1155
    145  CG       -23.6510  -13.4070  -23.1460 C.2    84  ASN84       0.2627
    146  OD1      -24.0750  -12.3190  -22.7640 O.2    84  ASN84      -0.2716
    147  ND2      -24.1700  -14.5600  -22.7300 N.am   84  ASN84      -0.0877
    148  N        -14.2290  -12.6230  -18.5980 N.3   128  LEU128     -0.1245
    149  CA       -14.3930  -11.5520  -19.5810 C.3   128  LEU128      0.1561
    150  C        -13.3620  -11.6950  -20.6960 C.2   128  LEU128      0.2260
    151  O        -12.2820  -12.2330  -20.4750 O.2   128  LEU128     -0.2867
    152  CB       -14.2560  -10.1950  -18.8980 C.3   128  LEU128      0.0270
    153  CG       -15.4620   -9.7740  -18.0520 C.3   128  LEU128      0.0019
    154  CD1      -15.0930   -8.6720  -17.0730 C.3   128  LEU128      0.0001
    155  CD2      -16.6190   -9.3330  -18.9380 C.3   128  LEU128      0.0001
    156  N        -12.4290  -12.6620  -13.5170 N.3   138  SER138     -0.1217
    157  CA       -12.8080  -11.5780  -12.6140 C.3   138  SER138      0.1889
    158  C        -12.6190  -12.0590  -11.1750 C.2   138  SER138      0.2288
    159  O        -13.4320  -12.8320  -10.6590 O.2   138  SER138     -0.2866
    160  CB       -14.2570  -11.1430  -12.8560 C.3   138  SER138      0.2089
    161  OG       -14.6060  -10.0570  -12.0160 O.3   138  SER138     -0.2183
    162  N        -12.7450  -10.0330   -8.5810 N.3   140  PHE140     -0.1241
    163  CA       -13.6460   -9.1500   -7.8010 C.3   140  PHE140      0.1605
    164  C        -14.4370   -9.7910   -6.6510 C.2   140  PHE140      0.2264
    165  O        -15.4800  -10.4140   -6.8730 O.2   140  PHE140     -0.2867
    166  CB       -14.6090   -8.4450   -8.7760 C.3   140  PHE140      0.0534
    167  CG       -15.5980   -7.5020   -8.1200 C.ar  140  PHE140     -0.0203
    168  CD1      -15.1790   -6.5340   -7.2090 C.ar  140  PHE140     -0.0042
    169  CD2      -16.9550   -7.5620   -8.4480 C.ar  140  PHE140     -0.0042
    170  CE1      -16.0940   -5.6660   -6.6180 C.ar  140  PHE140     -0.0003
    171  CE2      -17.8710   -6.6960   -7.8630 C.ar  140  PHE140     -0.0003
    172  CZ       -17.4410   -5.7460   -6.9470 C.ar  140  PHE140     -0.0000
@<TRIPOS>BOND
     1   128   127    2
     2   129   127   am
     3   127   126    1
     4     9     8    1
     5   126   123    1
     6   143   142    2
     7   121   118    1
     8   123   122    1
     9   123   124    1
    10   120   119    2
    11     7     8    1
    12     7     6    1
    13   119   122   am
    14   119   118    1
    15   142   141    1
    16   118   117    1
    17   125   124    2
    18   124   130   am
    19     6     5    1
    20   108   107    1
    21   106   107   ar
    22   106   104   ar
    23   117   111   am
    24   141   144    1
    25   141   140    1
    26     5     2    1
    27   144   145    1
    28   130   131    1
    29   107   105   ar
    30   104   102   ar
    31   111   112    2
    32   111   110    1
    33     2     1    1
    34     2     3    1
    35   145   146    2
    36   145   147   am
    37   131   132    1
    38   137   136    2
    39   105   103   ar
    40   102   103   ar
    41   102   101    1
    42   132   133    2
    43   132   134   am
    44    17    15    1
    45   110   109    1
    46   110   113    1
    47     3     4    2
    48   100    99    2
    49   136   135    1
    50   134   135    1
    51   109    99   am
    52   101    98    1
    53    99    98    1
    54   113   114    1
    55    13    12    2
    56   135   138    1
    57   139   138    1
    58    11    10    1
    59    11    14    1
    60    11    12    1
    61   150   151    2
    62   150   149    1
    63    15    14    1
    64    15    16    1
    65    98    97    1
    66   116   115    1
    67    12    18   am
    68   115   114    1
    69    97    90   am
    70   149   152    1
    71   149   148    1
    72    96    94   ar
    73   155   153    1
    74    18    19    1
    75   152   153    1
    76    93    94    1
    77    93    92    1
    78    94    95   ar
    79    90    91    2
    80    90    89    1
    81    19    20    1
    82   153   154    1
    83    36    37    1
    84    32    31    2
    85    89    92    1
    86    89    88    1
    87    37    40    1
    88    37    38    1
    89    20    21    2
    90    20    22   am
    91    31    30    1
    92    84    83    2
    93    48    46    1
    94    88    83   am
    95    38    41   am
    96    38    39    2
    97    34    33    1
    98    22    23    1
    99    41    42    1
   100    83    82    1
   101    46    45    1
   102    72    70    1
   103    33    30    1
   104    33    35    1
   105    30    29    1
   106    27    26    1
   107    45    42    1
   108    45    47    1
   109    86    85    1
   110    71    70    1
   111    67    70    1
   112    67    66    1
   113    67    68    1
   114    42    43    1
   115    44    43    2
   116    23    26    1
   117    23    24    1
   118    26    28    1
   119    82    85    1
   120    82    81    1
   121    85    87    1
   122    43    49   am
   123    68    69    2
   124    24    25    2
   125   156   157    1
   126    49    50    1
   127   160   157    1
   128   160   161    1
   129   157   158    1
   130    50    53    1
   131    50    51    1
   132    76    75    2
   133    53    54    1
   134   158   159    2
   135    51    52    2
   136    75    74    1
   137    54    55    1
   138    57    56    1
   139    55    56    1
   140    74    73    1
   141    74    77    1
   142    79    77    1
   143    77    78    1
   144   166   167    1
   145   166   163    1
   146   162   163    1
   147   169   167   ar
   148   169   171   ar
   149   167   168   ar
   150   171   172   ar
   151   163   164    1
   152    64    63    1
   153    64    65    1
   154    78    80    1
   155    61    60    2
   156   168   170   ar
   157   172   170   ar
   158    63    62    1
   159   165   164    2
   160    62    59    1
   161    60    59    1
   162    59    58    1
