@<TRIPOS>MOLECULE
tmp/6nftA00.pdb
 109 106 0 0 0
SMALL
GASTEIGER

@<TRIPOS>ATOM
      1  N         12.9380   49.4460  -18.6660 N.3    37  ASN37      -0.1240
      2  CA        14.2670   48.9460  -18.2520 C.3    37  ASN37       0.1653
      3  C         14.5240   49.3080  -16.7830 C.2    37  ASN37       0.2266
      4  O         15.5820   49.8570  -16.4510 O.2    37  ASN37      -0.2867
      5  CB        15.3450   49.5330  -19.1540 C.3    37  ASN37       0.1155
      6  CG        16.6660   48.8190  -19.0280 C.2    37  ASN37       0.2627
      7  OD1       16.7260   47.7210  -18.4380 O.2    37  ASN37      -0.2716
      8  ND2       17.7130   49.4350  -19.5770 N.am   37  ASN37      -0.0877
      9  N         14.7470   48.0720  -12.7100 N.3    39  TRP39      -0.1241
     10  CA        15.2430   46.9730  -11.8680 C.3    39  TRP39       0.1605
     11  C         14.8780   47.2530  -10.4050 C.2    39  TRP39       0.2264
     12  O         15.2780   48.2840   -9.8630 O.2    39  TRP39      -0.2867
     13  CB        16.7580   46.7510  -12.0830 C.3    39  TRP39       0.0550
     14  CG        16.9990   46.3320  -13.5050 C.ar   39  TRP39       0.0003
     15  CD1       17.0160   47.1320  -14.6040 C.ar   39  TRP39       0.0946
     16  CD2       17.1250   44.9820  -13.9770 C.ar   39  TRP39       0.0152
     17  NE1       17.1550   46.3670  -15.7340 N.ar   39  TRP39      -0.2442
     18  CE2       17.2230   45.0510  -15.3840 C.ar   39  TRP39       0.0810
     19  CE3       17.1700   43.7220  -13.3690 C.ar   39  TRP39       0.0012
     20  CZ2       17.3630   43.9090  -16.1680 C.ar   39  TRP39       0.0191
     21  CZ3       17.3180   42.5870  -14.1540 C.ar   39  TRP39       0.0001
     22  CH2       17.4420   42.6960  -15.5370 C.ar   39  TRP39       0.0015
     23  N         18.3060   50.4370  -15.8430 N.3    50  GLY50      -0.1210
     24  CA        19.2830   49.4350  -16.2800 C.3    50  GLY50       0.1956
     25  C         20.5800   50.0530  -16.7880 C.2    50  GLY50       0.2611
     26  O         20.7030   51.2840  -16.9670 O.2    50  GLY50      -0.2717
     27  N         21.5560   49.1850  -16.9850 N.am   51  ARG51      -0.1979
     28  CA        22.9170   49.5880  -17.3760 C.3    51  ARG51       0.1597
     29  C         22.9300   50.3130  -18.7300 C.2    51  ARG51       0.2287
     30  O         22.1760   49.9250  -19.6420 O.2    51  ARG51      -0.2864
     31  CB        23.7810   48.3340  -17.4690 C.3    51  ARG51       0.0334
     32  CG        25.2380   48.6610  -17.2260 C.3    51  ARG51       0.0492
     33  CD        26.0490   47.4110  -17.3180 C.3    51  ARG51       0.2205
     34  NE        25.8990   46.5110  -16.2020 N.pl3  51  ARG51      -0.0865
     35  CZ        26.8070   46.3190  -15.2730 C.cat  51  ARG51       0.5346
     36  NH1       26.5610   45.4290  -14.3380 N.pl3  51  ARG51       0.1354
     37  NH2       27.9230   47.0410  -15.2400 N.pl3  51  ARG51       0.1354
     38  N         25.0640   50.2170  -21.8430 N.3    53  TYR53      -0.1241
     39  CA        26.0140   49.3070  -22.5160 C.3    53  TYR53       0.1605
     40  C         27.0260   50.1460  -23.3210 C.2    53  TYR53       0.2264
     41  O         26.8000   51.3430  -23.5870 O.2    53  TYR53      -0.2867
     42  CB        25.2530   48.2970  -23.3640 C.3    53  TYR53       0.0534
     43  CG        24.4560   47.3100  -22.5580 C.ar   53  TYR53      -0.0201
     44  CD1       25.0990   46.4040  -21.7370 C.ar   53  TYR53      -0.0009
     45  CD2       23.0800   47.2610  -22.6170 C.ar   53  TYR53      -0.0009
     46  CE1       24.3980   45.4900  -20.9670 C.ar   53  TYR53       0.0417
     47  CE2       22.3560   46.3700  -21.8300 C.ar   53  TYR53       0.0417
     48  CZ        23.0190   45.4870  -20.9920 C.ar   53  TYR53       0.1957
     49  OH        22.3370   44.5640  -20.2310 O.3    53  TYR53      -0.2866
     50  N         20.6710   51.7140  -11.4250 N.3    63  ALA63      -0.1231
     51  CA        20.6650   50.4860  -10.6160 C.3    63  ALA63       0.1694
     52  C         22.1060   50.0360  -10.3170 C.2    63  ALA63       0.2591
     53  O         22.3730   49.6680   -9.1750 O.2    63  ALA63      -0.2718
     54  CB        19.8090   49.4370  -11.2940 C.3    63  ALA63       0.0304
     55  N         23.0080   50.0700  -11.2990 N.am   64  VAL64      -0.1980
     56  CA        24.4250   49.6590  -11.0770 C.3    64  VAL64       0.1595
     57  C         25.0720   50.6310  -10.0830 C.2    64  VAL64       0.2287
     58  O         25.7730   50.1490   -9.2040 O.2    64  VAL64      -0.2864
     59  CB        25.2270   49.5690  -12.3870 C.3    64  VAL64       0.0276
     60  CG1       24.8290   48.3720  -13.2180 C.3    64  VAL64       0.0022
     61  CG2       25.1560   50.8370  -13.2030 C.3    64  VAL64       0.0022
     62  N         19.0240   39.5560  -12.0160 N.3    89  TYR89      -0.1241
     63  CA        20.4590   39.8020  -12.2800 C.3    89  TYR89       0.1605
     64  C         21.1820   39.8940  -10.9410 C.2    89  TYR89       0.2264
     65  O         20.6210   40.4400   -9.9970 O.2    89  TYR89      -0.2867
     66  CB        20.6590   41.0450  -13.1540 C.3    89  TYR89       0.0534
     67  CG        22.1010   41.2970  -13.5270 C.ar   89  TYR89      -0.0201
     68  CD1       22.8010   40.6600  -14.5600 C.ar   89  TYR89      -0.0009
     69  CD2       22.7470   42.2750  -12.8020 C.ar   89  TYR89      -0.0009
     70  CE1       24.1390   40.9930  -14.8090 C.ar   89  TYR89       0.0417
     71  CE2       24.0530   42.5960  -13.0340 C.ar   89  TYR89       0.0417
     72  CZ        24.7410   41.9810  -14.0410 C.ar   89  TYR89       0.1957
     73  OH        26.0180   42.4590  -14.1220 O.3    89  TYR89      -0.2866
     74  N         24.5740   41.5990   -9.4630 N.3    91  TYR91      -0.1241
     75  CA        25.6910   42.5400   -9.7370 C.3    91  TYR91       0.1605
     76  C         27.0130   41.9400   -9.2540 C.2    91  TYR91       0.2264
     77  O         28.0390   42.1840   -9.8650 O.2    91  TYR91      -0.2867
     78  CB        25.4030   43.8850   -9.0670 C.3    91  TYR91       0.0534
     79  CG        24.2160   44.5840   -9.6810 C.ar   91  TYR91      -0.0201
     80  CD1       24.3010   45.1920  -10.9160 C.ar   91  TYR91      -0.0009
     81  CD2       22.9860   44.6000   -9.0440 C.ar   91  TYR91      -0.0009
     82  CE1       23.2020   45.8280  -11.4970 C.ar   91  TYR91       0.0417
     83  CE2       21.8800   45.2210   -9.6140 C.ar   91  TYR91       0.0417
     84  CZ        21.9980   45.8730  -10.8250 C.ar   91  TYR91       0.1957
     85  OH        20.8780   46.4100  -11.4170 O.3    91  TYR91      -0.2866
     86  N         27.7810   39.1550  -11.5750 N.3    94  ASP94      -0.1225
     87  CA        27.7560   39.7310  -12.9410 C.3    94  ASP94       0.1805
     88  C         27.1970   38.7050  -13.9240 C.2    94  ASP94       0.2598
     89  O         27.8440   38.4010  -14.9770 O.2    94  ASP94      -0.2718
     90  CB        29.1480   40.2290  -13.3390 C.3    94  ASP94       0.1424
     91  CG        29.1620   41.1080  -14.5780 C.2    94  ASP94       0.3668
     92  OD1       28.0910   41.6200  -14.9730 O.co2  94  ASP94      -0.2456
     93  OD2       30.2470   41.2720  -15.1570 O.co2  94  ASP94      -0.2456
     94  N         25.9620   38.2710  -13.6610 N.am   95  ASP95      -0.1960
     95  CA        25.2630   37.2990  -14.5230 C.3    95  ASP95       0.1840
     96  C         23.7750   37.3440  -14.2160 C.2    95  ASP95       0.2621
     97  O         23.3950   37.6870  -13.0840 O.2    95  ASP95      -0.2715
     98  CB        25.7970   35.8830  -14.3060 C.3    95  ASP95       0.1450
     99  CG        26.8890   35.4540  -15.2830 C.2    95  ASP95       0.3671
    100  OD1       26.7500   35.7040  -16.5250 O.co2  95  ASP95      -0.2456
    101  OD2       27.8560   34.8780  -14.7890 O.co2  95  ASP95      -0.2456
    102  N         22.9840   36.9420  -15.1880 N.am   96  MET96      -0.1977
    103  CA        21.5770   36.6020  -14.9510 C.3    96  MET96       0.1605
    104  C         21.6030   35.3220  -14.1200 C.2    96  MET96       0.2287
    105  O         22.4540   34.4200  -14.4140 O.2    96  MET96      -0.2864
    106  CB        20.7930   36.3540  -16.2280 C.3    96  MET96       0.0413
    107  CG        20.8390   37.4720  -17.2360 C.3    96  MET96       0.0598
    108  SD        20.1720   39.0220  -16.5600 S.3    96  MET96      -0.1393
    109  CE        18.6140   38.5150  -15.8820 C.3    96  MET96       0.0692
@<TRIPOS>BOND
     1    41    40    2
     2    42    43    1
     3    42    39    1
     4    40    39    1
     5    45    43   ar
     6    45    47   ar
     7    43    44   ar
     8    39    38    1
     9    47    48   ar
    10    44    46   ar
    11    48    46   ar
    12    48    49    1
    13    30    29    2
    14     8     6   am
    15     5     6    1
    16     5     2    1
    17     6     7    2
    18    29    28    1
    19     1     2    1
    20     2     3    1
    21    31    28    1
    22    31    32    1
    23    28    27    1
    24    33    32    1
    25    33    34    1
    26   107   108    1
    27   107   106    1
    28    27    25   am
    29    26    25    2
    30    25    24    1
    31     3     4    2
    32   108   109    1
    33   100    99   ar
    34    24    23    1
    35   106   103    1
    36    34    35    2
    37    20    22   ar
    38    20    18   ar
    39    17    18   ar
    40    17    15   ar
    41    22    21   ar
    42    18    16   ar
    43    99   101   ar
    44    99    98    1
    45    35    37    1
    46    35    36    1
    47   102   103    1
    48   102    96   am
    49    93    91   ar
    50    89    88    2
    51    92    91   ar
    52   103   104    1
    53    70    68   ar
    54    70    72   ar
    55    15    14   ar
    56    91    90    1
    57    68    67   ar
    58    95    98    1
    59    95    96    1
    60    95    94    1
    61   105   104    2
    62    96    97    2
    63    21    19   ar
    64    73    72    1
    65    72    71   ar
    66    16    14   ar
    67    16    19   ar
    68    88    94   am
    69    88    87    1
    70    67    66    1
    71    67    69   ar
    72    14    13    1
    73    90    87    1
    74    60    59    1
    75    61    59    1
    76    66    63    1
    77    71    69   ar
    78    87    86    1
    79     9    10    1
    80    59    56    1
    81    63    62    1
    82    63    64    1
    83    13    10    1
    84    10    11    1
    85    82    80   ar
    86    82    84   ar
    87    50    51    1
    88    85    84    1
    89    55    56    1
    90    55    52   am
    91    54    51    1
    92    56    57    1
    93    64    65    2
    94    80    79   ar
    95    84    83   ar
    96    51    52    1
    97    11    12    2
    98    52    53    2
    99    57    58    2
   100    77    76    2
   101    75    74    1
   102    75    76    1
   103    75    78    1
   104    79    78    1
   105    79    81   ar
   106    83    81   ar
