@<TRIPOS>MOLECULE
tmp/6ng1B03.pdb
 214 213 0 0 0
SMALL
GASTEIGER

@<TRIPOS>ATOM
      1  N        107.8980  255.1530  333.5490 N.3    38  MET38      -0.1230
      2  CA       108.4270  254.7460  332.2430 C.3    38  MET38       0.1702
      3  C        108.1760  255.8040  331.1660 C.2    38  MET38       0.2592
      4  O        109.0190  256.0140  330.2970 O.2    38  MET38      -0.2718
      5  CB       107.8490  253.3950  331.8090 C.3    38  MET38       0.0401
      6  CG       108.5360  252.8400  330.5390 C.3    38  MET38       0.0596
      7  SD       108.0990  251.1540  330.0490 S.3    38  MET38      -0.1393
      8  CE       108.5280  250.2120  331.5150 C.3    38  MET38       0.0692
      9  N        107.0340  256.4800  331.2220 N.am   39  HIS39      -0.1976
     10  CA       106.7830  257.6040  330.3160 C.3    39  HIS39       0.1656
     11  C        106.1370  258.7700  331.0340 C.2    39  HIS39       0.2291
     12  O        104.9260  258.7730  331.2120 O.2    39  HIS39      -0.2864
     13  CB       105.8670  257.2140  329.1570 C.3    39  HIS39       0.0771
     14  CG       106.0200  255.8030  328.6890 C.ar   39  HIS39       0.0820
     15  ND1      106.8480  255.4500  327.6470 N.ar   39  HIS39      -0.2267
     16  CD2      105.4110  254.6610  329.0860 C.ar   39  HIS39       0.1154
     17  CE1      106.7590  254.1500  327.4330 C.ar   39  HIS39       0.1986
     18  NE2      105.8940  253.6470  328.2940 N.ar   39  HIS39      -0.2212
     19  N        120.1180  253.2250  327.6240 N.3   108  CYS108     -0.1235
     20  CA       120.8580  252.2530  326.8400 C.3   108  CYS108      0.1677
     21  C        122.2270  251.9320  327.4090 C.2   108  CYS108      0.2270
     22  O        123.1120  252.7930  327.5060 O.2   108  CYS108     -0.2867
     23  CB       121.0270  252.7410  325.3880 C.3   108  CYS108      0.0956
     24  SG       121.9670  251.5840  324.3900 S.3   108  CYS108     -0.0801
     25  N        108.7450  246.5180  317.3110 N.3   171  GLN171     -0.1245
     26  CA       110.0710  246.0830  316.8850 C.3   171  GLN171      0.1566
     27  C        109.9840  245.3730  315.5230 C.2   171  GLN171      0.2260
     28  O        108.9160  244.8830  315.1590 O.2   171  GLN171     -0.2867
     29  CB       110.7010  245.1790  317.9550 C.3   171  GLN171      0.0367
     30  CG       111.0230  245.8840  319.2940 C.3   171  GLN171      0.0905
     31  CD       109.7860  246.1510  320.1670 C.2   171  GLN171      0.2608
     32  OE1      108.7760  245.4560  320.0680 O.2   171  GLN171     -0.2717
     33  NE2      109.8630  247.1770  321.0100 N.am  171  GLN171     -0.0878
     34  N        111.2800  242.5950  314.4150 N.3   173  ILE173     -0.1231
     35  CA       111.1180  241.1550  314.5810 C.3   173  ILE173      0.1692
     36  C        110.4870  240.8510  315.9400 C.2   173  ILE173      0.2591
     37  O        111.0860  241.1660  316.9700 O.2   173  ILE173     -0.2718
     38  CB       112.4730  240.4270  314.4940 C.3   173  ILE173      0.0266
     39  CG1      113.3620  241.0380  313.4070 C.3   173  ILE173      0.0019
     40  CG2      112.2770  238.9180  314.3320 C.3   173  ILE173      0.0020
     41  CD1      113.6300  240.1160  312.2680 C.3   173  ILE173      0.0001
     42  N        109.2860  240.2720  315.9390 N.am  174  ARG174     -0.1980
     43  CA       108.6160  239.8190  317.1710 C.3   174  ARG174      0.1597
     44  C        107.8090  238.5580  316.9230 C.2   174  ARG174      0.2287
     45  O        107.4920  238.2310  315.7840 O.2   174  ARG174     -0.2864
     46  CB       107.6880  240.8960  317.7280 C.3   174  ARG174      0.0334
     47  CG       108.4030  242.1740  318.0700 C.3   174  ARG174      0.0492
     48  CD       107.9810  242.6980  319.4040 C.3   174  ARG174      0.2205
     49  NE       107.9410  241.6740  320.4340 N.pl3 174  ARG174     -0.0865
     50  CZ       107.6860  241.9470  321.7060 C.cat 174  ARG174      0.5346
     51  NH1      107.4710  243.2030  322.0720 N.pl3 174  ARG174      0.1354
     52  NH2      107.6460  240.9750  322.6060 N.pl3 174  ARG174      0.1354
     53  N        114.6470  232.0580  320.0480 N.3   254  TRP254     -0.1227
     54  CA       114.4220  233.5000  319.9540 C.3   254  TRP254      0.1737
     55  C        115.1240  234.0070  318.6860 C.2   254  TRP254      0.2595
     56  O        115.9550  233.3040  318.1070 O.2   254  TRP254     -0.2718
     57  CB       114.9230  234.2280  321.2180 C.3   254  TRP254      0.0564
     58  CG       114.2660  235.5620  321.4430 C.ar  254  TRP254      0.0003
     59  CD1      114.8160  236.7960  321.2350 C.ar  254  TRP254      0.0946
     60  CD2      112.9220  235.7930  321.8940 C.ar  254  TRP254      0.0152
     61  NE1      113.9020  237.7800  321.5320 N.ar  254  TRP254     -0.2442
     62  CE2      112.7300  237.1890  321.9390 C.ar  254  TRP254      0.0810
     63  CE3      111.8640  234.9550  322.2640 C.ar  254  TRP254      0.0012
     64  CZ2      111.5210  237.7660  322.3430 C.ar  254  TRP254      0.0191
     65  CZ3      110.6630  235.5300  322.6610 C.ar  254  TRP254      0.0001
     66  CH2      110.5040  236.9200  322.7000 C.ar  254  TRP254      0.0015
     67  N        114.7590  235.1990  318.2290 N.am  255  TYR255     -0.1976
     68  CA       115.3990  235.7890  317.0580 C.3   255  TYR255      0.1639
     69  C        116.6910  236.4760  317.4740 C.2   255  TYR255      0.2290
     70  O        116.8760  236.8110  318.6460 O.2   255  TYR255     -0.2864
     71  CB       114.4720  236.7790  316.3710 C.3   255  TYR255      0.0560
     72  CG       113.6800  237.6260  317.3300 C.ar  255  TYR255     -0.0198
     73  CD1      114.1500  238.8600  317.7410 C.ar  255  TYR255     -0.0009
     74  CD2      112.4580  237.1880  317.8270 C.ar  255  TYR255     -0.0009
     75  CE1      113.4230  239.6360  318.6200 C.ar  255  TYR255      0.0417
     76  CE2      111.7270  237.9540  318.6970 C.ar  255  TYR255      0.0417
     77  CZ       112.2160  239.1780  319.0990 C.ar  255  TYR255      0.1957
     78  OH       111.4910  239.9560  319.9650 O.3   255  TYR255     -0.2866
     79  N        117.6610  242.3500  317.6370 N.3   258  PRO258     -0.2102
     80  CA       116.7670  243.2430  318.3810 C.3   258  PRO258      0.1504
     81  C        116.6900  244.5840  317.6980 C.2   258  PRO258      0.2576
     82  O        117.7160  245.2400  317.4910 O.2   258  PRO258     -0.2718
     83  CB       117.4460  243.3700  319.7570 C.3   258  PRO258      0.0282
     84  CG       118.9080  243.2430  319.4590 C.3   258  PRO258      0.0208
     85  CD       119.0260  242.3490  318.2040 C.3   258  PRO258      0.0893
     86  N        115.4890  245.0170  317.3630 N.am  259  ALA259     -0.1966
     87  CA       115.3860  246.1630  316.4860 C.3   259  ALA259      0.1728
     88  C        114.1640  246.9810  316.8090 C.2   259  ALA259      0.2616
     89  O        113.0500  246.5870  316.4900 O.2   259  ALA259     -0.2715
     90  CB       115.3530  245.7000  315.0300 C.3   259  ALA259      0.0334
     91  N        114.3890  248.1420  317.4040 N.am  260  VAL260     -0.1977
     92  CA       113.3150  248.9620  317.9350 C.3   260  VAL260      0.1596
     93  C        112.8090  249.9160  316.8840 C.2   260  VAL260      0.2287
     94  O        113.5880  250.6730  316.3020 O.2   260  VAL260     -0.2864
     95  CB       113.7820  249.7640  319.1660 C.3   260  VAL260      0.0276
     96  CG1      112.7870  250.8710  319.4860 C.3   260  VAL260      0.0022
     97  CG2      113.9880  248.8200  320.3480 C.3   260  VAL260      0.0022
     98  N        109.5070  251.7510  317.0900 N.3   262  ASN262     -0.1240
     99  CA       108.3200  252.5210  317.4710 C.3   262  ASN262      0.1653
    100  C        108.6780  253.8920  317.9900 C.2   262  ASN262      0.2266
    101  O        107.8190  254.6300  318.4530 O.2   262  ASN262     -0.2867
    102  CB       107.4910  251.7770  318.5230 C.3   262  ASN262      0.1155
    103  CG       108.2990  251.4060  319.7470 C.2   262  ASN262      0.2627
    104  OD1      109.4650  251.7810  319.8770 O.2   262  ASN262     -0.2716
    105  ND2      107.6790  250.6650  320.6580 N.am  262  ASN262     -0.0877
    106  N        115.8820  250.9210  314.3960 N.3   277  PHE277     -0.1227
    107  CA       117.2870  250.8140  314.7690 C.3   277  PHE277      0.1736
    108  C        117.5490  249.5540  315.5730 C.2   277  PHE277      0.2596
    109  O        116.7030  249.1030  316.3600 O.2   277  PHE277     -0.2718
    110  CB       117.7460  252.0430  315.5730 C.3   277  PHE277      0.0547
    111  CG       117.0550  252.2110  316.9160 C.ar  277  PHE277     -0.0202
    112  CD1      117.5250  251.5620  318.0490 C.ar  277  PHE277     -0.0042
    113  CD2      115.9600  253.0460  317.0460 C.ar  277  PHE277     -0.0042
    114  CE1      116.8950  251.7310  319.2840 C.ar  277  PHE277     -0.0003
    115  CE2      115.3300  253.2210  318.2800 C.ar  277  PHE277     -0.0003
    116  CZ       115.7980  252.5650  319.3880 C.ar  277  PHE277     -0.0000
    117  N        118.7470  249.0160  315.4030 N.am  278  SER278     -0.1938
    118  CA       119.0390  247.6740  315.8640 C.3   278  SER278      0.2055
    119  C        120.4840  247.5610  316.2820 C.2   278  SER278      0.2644
    120  O        121.3210  248.3550  315.8590 O.2   278  SER278     -0.2714
    121  CB       118.7300  246.6560  314.7610 C.3   278  SER278      0.2130
    122  OG       119.5400  246.8720  313.6130 O.3   278  SER278     -0.2179
    123  N        120.7570  246.5770  317.1290 N.am  279  GLY279     -0.1939
    124  CA       122.0830  246.3310  317.6550 C.3   279  GLY279      0.2014
    125  C        122.2010  244.8390  317.8660 C.2   279  GLY279      0.2639
    126  O        121.9400  244.0410  316.9580 O.2   279  GLY279     -0.2714
    127  N        122.5730  244.4440  319.0720 N.am  280  TRP280     -0.1959
    128  CA       122.5710  243.0330  319.4120 C.3   280  TRP280      0.1771
    129  C        122.1160  242.8760  320.8510 C.2   280  TRP280      0.2620
    130  O        122.1350  243.8320  321.6290 O.2   280  TRP280     -0.2715
    131  CB       123.9500  242.4130  319.1950 C.3   280  TRP280      0.0590
    132  CG       125.0430  243.1360  319.9010 C.ar  280  TRP280      0.0006
    133  CD1      125.3270  243.0930  321.2410 C.ar  280  TRP280      0.0946
    134  CD2      126.0140  244.0100  319.3130 C.ar  280  TRP280      0.0152
    135  NE1      126.4100  243.8910  321.5180 N.ar  280  TRP280     -0.2442
    136  CE2      126.8470  244.4710  320.3540 C.ar  280  TRP280      0.0810
    137  CE3      126.2510  244.4610  318.0140 C.ar  280  TRP280      0.0012
    138  CZ2      127.9060  245.3500  320.1310 C.ar  280  TRP280      0.0191
    139  CZ3      127.3080  245.3350  317.7910 C.ar  280  TRP280      0.0001
    140  CH2      128.1250  245.7620  318.8410 C.ar  280  TRP280      0.0015
    141  N        121.7110  241.6620  321.1920 N.am  281  TYR281     -0.1960
    142  CA       121.0730  241.3870  322.4700 C.3   281  TYR281      0.1771
    143  C        122.0210  241.2890  323.6550 C.2   281  TYR281      0.2619
    144  O        123.0830  240.6710  323.5760 O.2   281  TYR281     -0.2715
    145  CB       120.3060  240.0800  322.3810 C.3   281  TYR281      0.0574
    146  CG       118.8550  240.2260  322.0670 C.ar  281  TYR281     -0.0198
    147  CD1      118.2940  239.5300  321.0070 C.ar  281  TYR281     -0.0009
    148  CD2      118.0240  241.0260  322.8510 C.ar  281  TYR281     -0.0009
    149  CE1      116.9500  239.6400  320.7100 C.ar  281  TYR281      0.0417
    150  CE2      116.6650  241.1460  322.5530 C.ar  281  TYR281      0.0417
    151  CZ       116.1370  240.4460  321.4730 C.ar  281  TYR281      0.1957
    152  OH       114.7980  240.5290  321.1530 O.3   281  TYR281     -0.2866
    153  N        121.6130  241.8870  324.7610 N.am  282  MET282     -0.1977
    154  CA       122.1360  241.4790  326.0560 C.3   282  MET282      0.1605
    155  C        121.2950  240.2830  326.4830 C.2   282  MET282      0.2287
    156  O        120.0700  240.3270  326.3690 O.2   282  MET282     -0.2864
    157  CB       122.0690  242.6110  327.0720 C.3   282  MET282      0.0413
    158  CG       122.6140  242.2220  328.4590 C.3   282  MET282      0.0598
    159  SD       122.8830  243.6800  329.4820 S.3   282  MET282     -0.1393
    160  CE       121.2120  244.0820  329.9800 C.3   282  MET282      0.0692
    161  N        117.8000  240.2910  328.3600 N.3   285  GLU285     -0.1245
    162  CA       116.6300  240.7910  327.6560 C.3   285  GLU285      0.1567
    163  C        115.7520  239.6230  327.3060 C.2   285  GLU285      0.2260
    164  O        114.5380  239.6710  327.4800 O.2   285  GLU285     -0.2867
    165  CB       117.0100  241.5470  326.3930 C.3   285  GLU285      0.0388
    166  CG       117.7010  242.8590  326.6520 C.3   285  GLU285      0.1160
    167  CD       117.9190  243.6610  325.3690 C.2   285  GLU285      0.3649
    168  OE1      116.9440  244.2610  324.8910 O.co2 285  GLU285     -0.2457
    169  OE2      119.0700  243.7140  324.8720 O.co2 285  GLU285     -0.2457
    170  N        111.7680  238.4700  328.5020 N.3   290  ASP290     -0.1239
    171  CA       110.9140  237.7760  327.5380 C.3   290  ASP290      0.1674
    172  C        110.4250  236.4240  328.0500 C.2   290  ASP290      0.2266
    173  O        109.2460  236.0920  327.9500 O.2   290  ASP290     -0.2867
    174  CB       111.6510  237.5530  326.1930 C.3   290  ASP290      0.1410
    175  CG       112.1240  238.8440  325.5660 C.2   290  ASP290      0.3668
    176  OD1      111.3850  239.8570  325.6250 O.co2 290  ASP290     -0.2456
    177  OD2      113.2540  238.8480  325.0260 O.co2 290  ASP290     -0.2456
    178  N        104.7690  237.5210  330.1530 N.3   296  ARG296     -0.1245
    179  CA       105.4370  237.1600  328.9160 C.3   296  ARG296      0.1563
    180  C        105.3910  235.6510  328.6930 C.2   296  ARG296      0.2260
    181  O        104.3470  235.0350  328.8850 O.2   296  ARG296     -0.2867
    182  CB       106.8700  237.6780  328.9290 C.3   296  ARG296      0.0307
    183  CG       106.9470  239.1900  328.8830 C.3   296  ARG296      0.0489
    184  CD       106.3000  239.7370  327.6180 C.3   296  ARG296      0.2205
    185  NE       106.9550  239.2190  326.4160 N.pl3 296  ARG296     -0.0865
    186  CZ       108.1090  239.6740  325.9320 C.cat 296  ARG296      0.5346
    187  NH1      108.7480  240.6600  326.5410 N.pl3 296  ARG296      0.1354
    188  NH2      108.6350  239.1390  324.8430 N.pl3 296  ARG296      0.1354
    189  N        116.9590  251.6430  334.2830 N.3   371  TRP371     -0.1241
    190  CA       117.0230  250.8550  333.0640 C.3   371  TRP371      0.1605
    191  C        118.3910  250.2250  332.8690 C.2   371  TRP371      0.2264
    192  O        118.4950  249.1510  332.2810 O.2   371  TRP371     -0.2867
    193  CB       116.6500  251.7310  331.8500 C.3   371  TRP371      0.0550
    194  CG       115.1620  251.7460  331.5850 C.ar  371  TRP371      0.0003
    195  CD1      114.1860  252.2440  332.4030 C.ar  371  TRP371      0.0946
    196  CD2      114.4910  251.2190  330.4370 C.ar  371  TRP371      0.0152
    197  NE1      112.9480  252.0490  331.8400 N.ar  371  TRP371     -0.2442
    198  CE2      113.1090  251.4300  330.6260 C.ar  371  TRP371      0.0810
    199  CE3      114.9250  250.6000  329.2620 C.ar  371  TRP371      0.0012
    200  CZ2      112.1580  251.0440  329.6820 C.ar  371  TRP371      0.0191
    201  CZ3      113.9830  250.2150  328.3250 C.ar  371  TRP371      0.0001
    202  CH2      112.6120  250.4370  328.5440 C.ar  371  TRP371      0.0015
    203  N        109.6560  258.5450  322.9410 N.3   399  TYR399     -0.1241
    204  CA       108.4690  257.7590  322.7190 C.3   399  TYR399      0.1605
    205  C        107.4530  258.5620  321.9190 C.2   399  TYR399      0.2264
    206  O        107.4330  259.7900  321.9840 O.2   399  TYR399     -0.2867
    207  CB       107.8710  257.3120  324.0440 C.3   399  TYR399      0.0534
    208  CG       108.8000  256.4620  324.8420 C.ar  399  TYR399     -0.0201
    209  CD1      109.1680  256.8280  326.1370 C.ar  399  TYR399     -0.0009
    210  CD2      109.3330  255.3030  324.3100 C.ar  399  TYR399     -0.0009
    211  CE1      110.0230  256.0490  326.8900 C.ar  399  TYR399      0.0417
    212  CE2      110.1950  254.5120  325.0590 C.ar  399  TYR399      0.0417
    213  CZ       110.5340  254.8930  326.3490 C.ar  399  TYR399      0.1957
    214  OH       111.3910  254.1230  327.0920 O.3   399  TYR399     -0.2866
@<TRIPOS>BOND
     1    41    39    1
     2    39    38    1
     3   122   121    1
     4    40    38    1
     5   106   107    1
     6    34    35    1
     7    38    35    1
     8    35    36    1
     9   121   118    1
    10   107   108    1
    11   107   110    1
    12    90    87    1
    13    28    27    2
    14   117   108   am
    15   117   118    1
    16    27    26    1
    17   108   109    2
    18   110   111    1
    19    45    44    2
    20   120   119    2
    21   118   119    1
    22    42    36   am
    23    42    43    1
    24    36    37    2
    25   119   123   am
    26    94    93    2
    27    71    68    1
    28    71    72    1
    29    87    88    1
    30    87    86    1
    31    89    88    2
    32    88    91   am
    33    93    92    1
    34    26    25    1
    35    26    29    1
    36   111   113   ar
    37   111   112   ar
    38    44    43    1
    39   126   125    2
    40   113   115   ar
    41    68    69    1
    42    68    67    1
    43    98    99    1
    44   123   124    1
    45    43    46    1
    46    72    73   ar
    47    72    74   ar
    48    86    81   am
    49    91    92    1
    50    99   100    1
    51    99   102    1
    52    69    70    2
    53    82    81    2
    54    79    85    1
    55    79    80    1
    56   124   125    1
    57    81    80    1
    58    46    47    1
    59    73    75   ar
    60   139   137   ar
    61   139   140   ar
    62    74    76   ar
    63   125   127   am
    64    92    95    1
    65    29    30    1
    66   100   101    2
    67   137   134   ar
    68   112   114   ar
    69    47    48    1
    70    56    55    2
    71    85    84    1
    72    67    55   am
    73   115   116   ar
    74    80    83    1
    75   102   103    1
    76    75    77   ar
    77    55    54    1
    78    76    77   ar
    79   140   138   ar
    80   127   128    1
    81    77    78    1
    82    95    96    1
    83    95    97    1
    84   131   128    1
    85   131   132    1
    86   114   116   ar
    87    30    31    1
    88   134   132   ar
    89   134   136   ar
    90    48    49    1
    91   128   129    1
    92    84    83    1
    93   103   104    2
    94   103   105   am
    95   132   133   ar
    96    54    53    1
    97    54    57    1
    98    32    31    2
    99   138   136   ar
   100    31    33   am
   101   136   135   ar
   102    49    50    2
   103   149   147   ar
   104   149   151   ar
   105   129   141   am
   106   129   130    2
   107   147   146   ar
   108   152   151    1
   109   141   142    1
   110    57    58    1
   111    59    58   ar
   112    59    61   ar
   113   133   135   ar
   114    58    60   ar
   115   151   150   ar
   116    61    62   ar
   117    50    51    1
   118    50    52    1
   119    60    62   ar
   120    60    63   ar
   121   205   206    2
   122   205   204    1
   123    62    64   ar
   124   146   145    1
   125   146   148   ar
   126    63    65   ar
   127    64    66   ar
   128   145   142    1
   129   142   143    1
   130   150   148   ar
   131    65    66   ar
   132   204   203    1
   133   204   207    1
   134   144   143    2
   135   143   153   am
   136   207   208    1
   137   210   208   ar
   138   210   212   ar
   139    24    23    1
   140   153   154    1
   141   208   209   ar
   142   188   186    1
   143   169   167   ar
   144   168   167   ar
   145   177   175   ar
   146   212   213   ar
   147   167   166    1
   148    23    20    1
   149   175   176   ar
   150   175   174    1
   151   186   185    2
   152   186   187    1
   153   154   155    1
   154   154   157    1
   155   209   211   ar
   156   174   171    1
   157   213   211   ar
   158   213   214    1
   159   156   155    2
   160   165   166    1
   161   165   162    1
   162   185   184    1
   163    20    21    1
   164    20    19    1
   165   157   158    1
   166   163   164    2
   167   163   162    1
   168    21    22    2
   169    17    15   ar
   170    17    18   ar
   171   171   172    1
   172   171   170    1
   173   184   183    1
   174    15    14   ar
   175   162   161    1
   176   173   172    2
   177    18    16   ar
   178   201   202   ar
   179   201   199   ar
   180   158   159    1
   181   202   200   ar
   182    14    16   ar
   183    14    13    1
   184   180   181    2
   185   180   179    1
   186   183   182    1
   187   179   182    1
   188   179   178    1
   189    13    10    1
   190   199   196   ar
   191   159   160    1
   192   200   198   ar
   193     7     6    1
   194     7     8    1
   195     4     3    2
   196    10    11    1
   197    10     9    1
   198   196   198   ar
   199   196   194   ar
   200     6     5    1
   201   198   197   ar
   202    11    12    2
   203     3     9   am
   204     3     2    1
   205   194   193    1
   206   194   195   ar
   207     5     2    1
   208   197   195   ar
   209   193   190    1
   210     2     1    1
   211   192   191    2
   212   191   190    1
   213   190   189    1
