@<TRIPOS>MOLECULE
tmp/6ngqB03.pdb
 178 174 0 0 0
SMALL
GASTEIGER

@<TRIPOS>ATOM
      1  N         17.8950   12.5510   47.3930 N.3    38  MET38      -0.1230
      2  CA        17.7050   11.8720   48.6760 C.3    38  MET38       0.1702
      3  C         17.2280   12.8330   49.7650 C.2    38  MET38       0.2592
      4  O         16.2550   12.5450   50.4680 O.2    38  MET38      -0.2718
      5  CB        19.0030   11.1820   49.1030 C.3    38  MET38       0.0401
      6  CG        18.8510   10.2180   50.2790 C.3    38  MET38       0.0596
      7  SD        18.7250    8.4930   49.7370 S.3    38  MET38      -0.1393
      8  CE        20.3850    7.9110   50.0480 C.3    38  MET38       0.0692
      9  N         17.9060   13.9700   49.9380 N.am   39  LEU39      -0.1980
     10  CA        17.5140   14.9750   50.9300 C.3    39  LEU39       0.1596
     11  C         17.5190   16.3560   50.2930 C.2    39  LEU39       0.2287
     12  O         18.5320   17.0650   50.3350 O.2    39  LEU39      -0.2864
     13  CB        18.4260   14.9440   52.1570 C.3    39  LEU39       0.0297
     14  CG        19.6840   14.0810   52.1130 C.3    39  LEU39       0.0022
     15  CD1       20.9270   14.9540   52.0080 C.3    39  LEU39       0.0001
     16  CD2       19.7470   13.1630   53.3220 C.3    39  LEU39       0.0001
     17  N         21.8270    6.3270   64.1860 N.3   170  SER170     -0.1202
     18  CA        20.8110    6.4310   63.1490 C.3   170  SER170      0.2020
     19  C         19.6900    5.4190   63.3650 C.2   170  SER170      0.2618
     20  O         18.5320    5.7040   63.0460 O.2   170  SER170     -0.2717
     21  CB        21.4610    6.2420   61.7750 C.3   170  SER170      0.2103
     22  OG        22.2390    5.0570   61.7340 O.3   170  SER170     -0.2182
     23  N         20.0160    4.2220   63.8740 N.am  171  GLN171     -0.1979
     24  CA        19.0320    3.2220   64.2610 C.3   171  GLN171      0.1601
     25  C         19.4010    2.7000   65.6460 C.2   171  GLN171      0.2287
     26  O         20.5860    2.5980   65.9800 O.2   171  GLN171     -0.2864
     27  CB        18.9580    2.0410   63.2550 C.3   171  GLN171      0.0394
     28  CG        18.5750    2.3880   61.8010 C.3   171  GLN171      0.0908
     29  CD        18.6360    1.1590   60.8520 C.2   171  GLN171      0.2608
     30  OE1       18.6170    0.0040   61.3000 O.2   171  GLN171     -0.2717
     31  NE2       18.7130    1.4180   59.5410 N.am  171  GLN171     -0.0878
     32  N         22.1610   -1.5150   65.3050 N.3   174  ARG174     -0.1245
     33  CA        22.9430   -1.6060   64.0800 C.3   174  ARG174      0.1563
     34  C         24.2780   -2.2520   64.3880 C.2   174  ARG174      0.2260
     35  O         24.7740   -2.1870   65.5160 O.2   174  ARG174     -0.2867
     36  CB        23.1920   -0.2400   63.4450 C.3   174  ARG174      0.0307
     37  CG        22.0020    0.2920   62.6830 C.3   174  ARG174      0.0489
     38  CD        22.3930    1.3670   61.7090 C.3   174  ARG174      0.2205
     39  NE        22.5370    0.8560   60.3490 N.pl3 174  ARG174     -0.0865
     40  CZ        22.6160    1.6360   59.2770 C.cat 174  ARG174      0.5346
     41  NH1       22.5500    2.9550   59.4130 N.pl3 174  ARG174      0.1354
     42  NH2       22.7530    1.1020   58.0720 N.pl3 174  ARG174      0.1354
     43  N         28.3480    0.7720   56.1720 N.3   190  ALA190     -0.1245
     44  CA        27.5540    1.9770   56.3850 C.3   190  ALA190      0.1562
     45  C         27.8970    2.6860   57.6920 C.2   190  ALA190      0.2260
     46  O         27.7600    3.9090   57.7800 O.2   190  ALA190     -0.2867
     47  CB        26.0690    1.6220   56.3780 C.3   190  ALA190      0.0290
     48  N         13.8100   -3.1540   63.2740 N.3   258  PRO258     -0.2116
     49  CA        14.2530   -1.9110   62.6310 C.3   258  PRO258      0.1372
     50  C         13.7020   -0.7100   63.3860 C.2   258  PRO258      0.2244
     51  O         12.4890   -0.5780   63.5450 O.2   258  PRO258     -0.2868
     52  CB        13.6510   -2.0160   61.2190 C.3   258  PRO258      0.0268
     53  CG        12.3550   -2.7640   61.4440 C.3   258  PRO258      0.0207
     54  CD        12.6390   -3.7420   62.5890 C.3   258  PRO258      0.0892
     55  N         14.2510    3.4740   63.6260 N.3   260  VAL260     -0.1245
     56  CA        14.8950    4.7090   63.1780 C.3   260  VAL260      0.1561
     57  C         14.9660    5.6940   64.3400 C.2   260  VAL260      0.2260
     58  O         13.9520    5.9990   64.9750 O.2   260  VAL260     -0.2867
     59  CB        14.1270    5.3180   61.9980 C.3   260  VAL260      0.0252
     60  CG1       14.5960    6.7350   61.7440 C.3   260  VAL260      0.0019
     61  CG2       14.3200    4.4430   60.7500 C.3   260  VAL260      0.0019
     62  N         17.1740    8.8390   64.1850 N.3   262  ASN262     -0.1225
     63  CA        17.7970   10.1250   63.8800 C.3   262  ASN262      0.1785
     64  C         16.8550   11.1170   63.2200 C.2   262  ASN262      0.2597
     65  O         17.3160   12.1450   62.7220 O.2   262  ASN262     -0.2718
     66  CB        19.0470    9.9570   63.0130 C.3   262  ASN262      0.1169
     67  CG        18.7800    9.2170   61.7330 C.2   262  ASN262      0.2627
     68  OD1       17.6280    8.9500   61.3640 O.2   262  ASN262     -0.2716
     69  ND2       19.8500    8.8690   61.0390 N.am  262  ASN262     -0.0877
     70  N         15.5550   10.8750   63.2250 N.am  263  MET263     -0.1979
     71  CA        14.6820   11.8260   62.5620 C.3   263  MET263      0.1605
     72  C         14.0660   12.7870   63.5660 C.2   263  MET263      0.2287
     73  O         14.2080   12.6440   64.7790 O.2   263  MET263     -0.2864
     74  CB        13.6200   11.1010   61.7320 C.3   263  MET263      0.0413
     75  CG        14.2870   10.3450   60.5650 C.3   263  MET263      0.0598
     76  SD        13.1420    9.7480   59.3220 S.3   263  MET263     -0.1393
     77  CE        12.8610   11.2650   58.3810 C.3   263  MET263      0.0692
     78  N         11.5530    5.4560   66.5520 N.3   277  PHE277     -0.1227
     79  CA        10.3630    4.6910   66.2370 C.3   277  PHE277      0.1736
     80  C         10.7810    3.3920   65.5540 C.2   277  PHE277      0.2596
     81  O         11.8850    3.2730   65.0200 O.2   277  PHE277     -0.2718
     82  CB         9.3910    5.5210   65.3780 C.3   277  PHE277      0.0547
     83  CG        10.0100    6.0910   64.1100 C.ar  277  PHE277     -0.0202
     84  CD1       10.1140    5.3020   62.9580 C.ar  277  PHE277     -0.0042
     85  CD2       10.4520    7.4180   64.0580 C.ar  277  PHE277     -0.0042
     86  CE1       10.6550    5.8110   61.7740 C.ar  277  PHE277     -0.0003
     87  CE2       10.9970    7.9370   62.8770 C.ar  277  PHE277     -0.0003
     88  CZ        11.0940    7.1300   61.7310 C.ar  277  PHE277     -0.0000
     89  N          9.8980    2.4000   65.6060 N.am  278  SER278     -0.1938
     90  CA        10.2530    1.0620   65.1650 C.3   278  SER278      0.2055
     91  C          9.0050    0.3530   64.6610 C.2   278  SER278      0.2644
     92  O          7.8890    0.6270   65.1070 O.2   278  SER278     -0.2714
     93  CB        10.9100    0.2400   66.2890 C.3   278  SER278      0.2130
     94  OG         9.9640   -0.1280   67.2980 O.3   278  SER278     -0.2179
     95  N          9.2040   -0.5460   63.7080 N.am  279  GLY279     -0.1939
     96  CA         8.1430   -1.4290   63.2810 C.3   279  GLY279      0.2014
     97  C          8.6930   -2.8300   63.1150 C.2   279  GLY279      0.2639
     98  O          9.2900   -3.3890   64.0430 O.2   279  GLY279     -0.2714
     99  N          8.4970   -3.4100   61.9330 N.am  280  TRP280     -0.1959
    100  CA         9.1340   -4.6600   61.5730 C.3   280  TRP280      0.1771
    101  C          9.6500   -4.5470   60.1350 C.2   280  TRP280      0.2620
    102  O          9.2800   -3.6410   59.3840 O.2   280  TRP280     -0.2715
    103  CB         8.1800   -5.8490   61.7110 C.3   280  TRP280      0.0590
    104  CG         6.8730   -5.6780   61.0130 C.ar  280  TRP280      0.0006
    105  CD1        6.6090   -5.8890   59.6770 C.ar  280  TRP280      0.0946
    106  CD2        5.6420   -5.2680   61.6070 C.ar  280  TRP280      0.0152
    107  NE1        5.2810   -5.6200   59.4140 N.ar  280  TRP280     -0.2442
    108  CE2        4.6670   -5.2420   60.5820 C.ar  280  TRP280      0.0810
    109  CE3        5.2620   -4.9280   62.9180 C.ar  280  TRP280      0.0012
    110  CZ2        3.3390   -4.8940   60.8260 C.ar  280  TRP280      0.0191
    111  CZ3        3.9420   -4.5810   63.1620 C.ar  280  TRP280      0.0001
    112  CH2        2.9960   -4.5590   62.1210 C.ar  280  TRP280      0.0015
    113  N         10.4790   -5.5050   59.7490 N.am  281  TYR281     -0.1960
    114  CA        11.2050   -5.3900   58.4950 C.3   281  TYR281      0.1771
    115  C         10.3700   -5.8630   57.3130 C.2   281  TYR281      0.2619
    116  O          9.5960   -6.8170   57.4130 O.2   281  TYR281     -0.2715
    117  CB        12.4820   -6.2110   58.5530 C.3   281  TYR281      0.0574
    118  CG        13.7350   -5.4700   58.9310 C.ar  281  TYR281     -0.0198
    119  CD1       14.4740   -5.8340   60.0630 C.ar  281  TYR281     -0.0009
    120  CD2       14.2180   -4.4470   58.1360 C.ar  281  TYR281     -0.0009
    121  CE1       15.6560   -5.1840   60.3820 C.ar  281  TYR281      0.0417
    122  CE2       15.3910   -3.7910   58.4460 C.ar  281  TYR281      0.0417
    123  CZ        16.1090   -4.1630   59.5750 C.ar  281  TYR281      0.1957
    124  OH        17.2790   -3.5010   59.8780 O.3   281  TYR281     -0.2866
    125  N         10.5310   -5.1860   56.1870 N.am  282  MET282     -0.1977
    126  CA        10.2350   -5.8090   54.9080 C.3   282  MET282      0.1605
    127  C         11.4800   -6.5740   54.4830 C.2   282  MET282      0.2287
    128  O         12.6000   -6.0750   54.6270 O.2   282  MET282     -0.2864
    129  CB         9.8400   -4.7490   53.8580 C.3   282  MET282      0.0413
    130  CG         9.5010   -5.3170   52.4680 C.3   282  MET282      0.0598
    131  SD         8.6090   -4.1250   51.4430 S.3   282  MET282     -0.1393
    132  CE         9.9320   -3.0110   50.9710 C.3   282  MET282      0.0692
    133  N         14.6480   -5.0440   52.7110 N.3   285  GLU285     -0.1245
    134  CA        15.5320   -4.1110   53.4110 C.3   285  GLU285      0.1567
    135  C         16.8090   -4.8010   53.8710 C.2   285  GLU285      0.2260
    136  O         17.8910   -4.2100   53.8280 O.2   285  GLU285     -0.2867
    137  CB        14.8150   -3.4950   54.6040 C.3   285  GLU285      0.0388
    138  CG        13.5720   -2.7220   54.2390 C.3   285  GLU285      0.1160
    139  CD        12.9190   -2.1090   55.4680 C.2   285  GLU285      0.3649
    140  OE1       13.4260   -1.0640   55.9160 O.co2 285  GLU285     -0.2457
    141  OE2       11.9140   -2.6600   55.9780 O.co2 285  GLU285     -0.2457
    142  N         27.6530   -2.1560   51.2400 N.3   296  ARG296     -0.1245
    143  CA        27.2350   -2.8040   52.4870 C.3   296  ARG296      0.1563
    144  C         27.9270   -4.1600   52.6570 C.2   296  ARG296      0.2260
    145  O         29.1310   -4.2700   52.4110 O.2   296  ARG296     -0.2867
    146  CB        25.7130   -2.9540   52.5220 C.3   296  ARG296      0.0307
    147  CG        24.9470   -1.6220   52.4020 C.3   296  ARG296      0.0489
    148  CD        25.1830   -0.6600   53.5840 C.3   296  ARG296      0.2205
    149  NE        24.7590   -1.2140   54.8740 N.pl3 296  ARG296     -0.0865
    150  CZ        23.4960   -1.2820   55.2880 C.cat 296  ARG296      0.5346
    151  NH1       22.5160   -0.8330   54.5100 N.pl3 296  ARG296      0.1354
    152  NH2       23.2070   -1.7940   56.4860 N.pl3 296  ARG296      0.1354
    153  N         10.7650    5.7240   46.5370 N.3   371  TRP371     -0.1241
    154  CA        11.0260    4.9690   47.7560 C.3   371  TRP371      0.1605
    155  C         10.0450    3.8360   47.9840 C.2   371  TRP371      0.2264
    156  O         10.4040    2.8390   48.6290 O.2   371  TRP371     -0.2867
    157  CB        10.9870    5.9070   48.9860 C.3   371  TRP371      0.0550
    158  CG        12.3020    6.5760   49.2570 C.ar  371  TRP371      0.0003
    159  CD1       12.9780    7.4420   48.4280 C.ar  371  TRP371      0.0946
    160  CD2       13.1220    6.4100   50.4230 C.ar  371  TRP371      0.0152
    161  NE1       14.1550    7.8320   49.0220 N.ar  371  TRP371     -0.2442
    162  CE2       14.2710    7.2080   50.2410 C.ar  371  TRP371      0.0810
    163  CE3       12.9830    5.6840   51.6180 C.ar  371  TRP371      0.0012
    164  CZ2       15.2800    7.2970   51.2070 C.ar  371  TRP371      0.0191
    165  CZ3       13.9940    5.7720   52.5820 C.ar  371  TRP371      0.0001
    166  CH2       15.1210    6.5760   52.3670 C.ar  371  TRP371      0.0015
    167  N         14.1980   15.0090   58.2310 N.3   399  TYR399     -0.1241
    168  CA        15.6110   14.7700   58.4320 C.3   399  TYR399      0.1605
    169  C         16.2110   15.8960   59.2520 C.2   399  TYR399      0.2264
    170  O         15.6670   16.9960   59.3530 O.2   399  TYR399     -0.2867
    171  CB        16.3480   14.6550   57.1010 C.3   399  TYR399      0.0534
    172  CG        15.9210   13.4660   56.2950 C.ar  399  TYR399     -0.0201
    173  CD1       15.2890   13.6310   55.0710 C.ar  399  TYR399     -0.0009
    174  CD2       16.1340   12.1710   56.7620 C.ar  399  TYR399     -0.0009
    175  CE1       14.8950   12.5450   54.3250 C.ar  399  TYR399      0.0417
    176  CE2       15.7420   11.0760   56.0240 C.ar  399  TYR399      0.0417
    177  CZ        15.1220   11.2730   54.8090 C.ar  399  TYR399      0.1957
    178  OH        14.7260   10.2040   54.0550 O.3   399  TYR399     -0.2866
@<TRIPOS>BOND
     1   153   154    1
     2     1     2    1
     3   154   155    1
     4   154   157    1
     5   155   156    2
     6   159   161   ar
     7   159   158   ar
     8     2     5    1
     9     2     3    1
    10   157   158    1
    11   161   162   ar
    12     5     6    1
    13   158   160   ar
    14     7     8    1
    15     7     6    1
    16     3     9   am
    17     3     4    2
    18     9    10    1
    19   162   160   ar
    20   162   164   ar
    21    11    12    2
    22    11    10    1
    23   160   163   ar
    24    10    13    1
    25   132   131    1
    26   164   166   ar
    27   142   143    1
    28   131   130    1
    29   163   165   ar
    30    15    14    1
    31    14    13    1
    32    14    16    1
    33   166   165   ar
    34   147   146    1
    35   147   148    1
    36   145   144    2
    37   130   129    1
    38   143   146    1
    39   143   144    1
    40   133   134    1
    41   134   135    1
    42   134   137    1
    43   148   149    1
    44   136   135    2
    45   129   126    1
    46   178   177    1
    47   138   137    1
    48   138   139    1
    49   175   177   ar
    50   175   173   ar
    51   127   128    2
    52   127   126    1
    53   151   150    1
    54   177   176   ar
    55   149   150    2
    56   126   125    1
    57   173   172   ar
    58   150   152    1
    59   139   140   ar
    60   139   141   ar
    61   176   174   ar
    62    43    44    1
    63   125   115   am
    64   172   174   ar
    65   172   171    1
    66    47    44    1
    67    44    45    1
    68   171   168    1
    69   115   116    2
    70   115   114    1
    71    45    46    2
    72    42    40    1
    73   120   122   ar
    74   120   118   ar
    75   167   168    1
    76    77    76    1
    77   168   169    1
    78   122   123   ar
    79   114   117    1
    80   114   113    1
    81   117   118    1
    82   118   119   ar
    83   169   170    2
    84    40    41    1
    85    40    39    2
    86    76    75    1
    87   102   101    2
    88   107   105   ar
    89   107   108   ar
    90    31    29   am
    91   123   124    1
    92   123   121   ar
    93   105   104   ar
    94   113   101   am
    95   119   121   ar
    96   101   100    1
    97    39    38    1
    98    75    74    1
    99   108   110   ar
   100   108   106   ar
   101    61    59    1
   102   110   112   ar
   103    29    30    2
   104    29    28    1
   105   104   106   ar
   106   104   103    1
   107    69    67   am
   108    52    53    1
   109    52    49    1
   110    68    67    2
   111    53    54    1
   112   100   103    1
   113   100    99    1
   114   106   109   ar
   115    38    37    1
   116    88    86   ar
   117    88    87   ar
   118    74    71    1
   119    67    66    1
   120    22    21    1
   121    60    59    1
   122    86    84   ar
   123    21    18    1
   124    28    27    1
   125    99    97   am
   126    59    56    1
   127   112   111   ar
   128    71    70    1
   129    71    72    1
   130    54    48    1
   131    49    48    1
   132    49    50    1
   133    37    36    1
   134    65    64    2
   135    87    85   ar
   136   109   111   ar
   137    84    83   ar
   138    66    63    1
   139    20    19    2
   140    97    96    1
   141    97    98    2
   142    18    19    1
   143    18    17    1
   144    56    55    1
   145    56    57    1
   146    64    70   am
   147    64    63    1
   148    27    24    1
   149    96    95    1
   150    19    23   am
   151    50    51    2
   152    36    33    1
   153    72    73    2
   154    95    91   am
   155    23    24    1
   156    63    62    1
   157    85    83   ar
   158    33    34    1
   159    33    32    1
   160    83    82    1
   161    24    25    1
   162    57    58    2
   163    34    35    2
   164    91    92    2
   165    91    90    1
   166    81    80    2
   167    90    89    1
   168    90    93    1
   169    82    79    1
   170    80    89   am
   171    80    79    1
   172    25    26    2
   173    79    78    1
   174    93    94    1
