@<TRIPOS>MOLECULE
tmp/6ngtA02.pdb
 168 165 0 0 0
SMALL
GASTEIGER

@<TRIPOS>ATOM
      1  N          2.7160    8.8850   34.7940 N.3    38  MET38      -0.1230
      2  CA         3.1370    8.3770   33.4880 C.3    38  MET38       0.1702
      3  C          3.1500    9.4860   32.4370 C.2    38  MET38       0.2592
      4  O          4.0970    9.6030   31.6510 O.2    38  MET38      -0.2718
      5  CB         2.2140    7.2390   33.0520 C.3    38  MET38       0.0401
      6  CG         2.5890    6.6000   31.7250 C.3    38  MET38       0.0596
      7  SD         3.6570    5.1720   31.9530 S.3    38  MET38      -0.1393
      8  CE         2.4990    3.9570   32.5780 C.3    38  MET38       0.0692
      9  N          2.1060   10.3160   32.4140 N.am   39  LEU39      -0.1980
     10  CA         1.9270   11.3450   31.3890 C.3    39  LEU39       0.1596
     11  C          1.5120   12.6580   32.0390 C.2    39  LEU39       0.2287
     12  O          0.3180   12.9010   32.2620 O.2    39  LEU39      -0.2864
     13  CB         0.8820   10.9160   30.3630 C.3    39  LEU39       0.0297
     14  CG         0.7980    9.4320   29.9900 C.3    39  LEU39       0.0022
     15  CD1       -0.6070    9.0930   29.5320 C.3    39  LEU39       0.0001
     16  CD2        1.8200    9.0390   28.9220 C.3    39  LEU39       0.0001
     17  N         15.3270    7.5500   28.8430 N.3   106  CYS106     -0.1235
     18  CA        15.9860    6.5440   28.0150 C.3   106  CYS106      0.1677
     19  C         17.3280    6.1860   28.6370 C.2   106  CYS106      0.2270
     20  O         18.2110    7.0420   28.7340 O.2   106  CYS106     -0.2867
     21  CB        16.1810    7.0330   26.5720 C.3   106  CYS106      0.0956
     22  SG        17.1120    5.8230   25.5950 S.3   106  CYS106     -0.0801
     23  N          1.7830    1.4760   17.7050 N.3   168  SER168     -0.1202
     24  CA         2.6330    2.0330   18.7500 C.3   168  SER168      0.2020
     25  C          4.0880    1.6450   18.5400 C.2   168  SER168      0.2618
     26  O          4.9980    2.4080   18.8800 O.2   168  SER168     -0.2717
     27  CB         2.1520    1.5620   20.1270 C.3   168  SER168      0.2103
     28  OG         1.9940    0.1540   20.1380 O.3   168  SER168     -0.2182
     29  N          4.3190    0.4460   18.0220 N.am  169  GLN169     -0.1979
     30  CA         5.6260    0.0070   17.5680 C.3   169  GLN169      0.1601
     31  C          5.4670   -0.5930   16.1810 C.2   169  GLN169      0.2287
     32  O          4.4350   -1.1940   15.8750 O.2   169  GLN169     -0.2864
     33  CB         6.2460   -1.0240   18.5120 C.3   169  GLN169      0.0394
     34  CG         6.6570   -0.4550   19.8530 C.3   169  GLN169      0.0908
     35  CD         7.4610   -1.4400   20.6760 C.2   169  GLN169      0.2608
     36  OE1        8.1390   -2.3180   20.1340 O.2   169  GLN169     -0.2717
     37  NE2        7.3810   -1.3090   21.9930 N.am  169  GLN169     -0.0878
     38  N          4.8050   -5.4510   16.5930 N.3   172  ARG172     -0.1245
     39  CA         4.1960   -5.8120   17.8610 C.3   172  ARG172      0.1563
     40  C          3.1750   -6.9140   17.6170 C.2   172  ARG172      0.2260
     41  O          2.6560   -7.0600   16.5090 O.2   172  ARG172     -0.2867
     42  CB         3.5600   -4.5970   18.5380 C.3   172  ARG172      0.0307
     43  CG         4.2480   -4.2760   19.8620 C.3   172  ARG172      0.0489
     44  CD         3.4380   -3.3300   20.7010 C.3   172  ARG172      0.2205
     45  NE         3.7420   -3.4910   22.1140 N.pl3 172  ARG172     -0.0865
     46  CZ         3.1970   -2.7640   23.0830 C.cat 172  ARG172      0.5346
     47  NH1        2.3240   -1.8080   22.7940 N.pl3 172  ARG172      0.1354
     48  NH2        3.5340   -2.9890   24.3440 N.pl3 172  ARG172      0.1354
     49  N         12.9760   -3.2820   18.5420 N.3   256  PRO256     -0.2116
     50  CA        12.0470   -2.3590   19.2050 C.3   256  PRO256      0.1372
     51  C         12.0460   -1.0340   18.4570 C.2   256  PRO256      0.2244
     52  O         13.0770   -0.3700   18.3330 O.2   256  PRO256     -0.2868
     53  CB        12.6310   -2.2170   20.6220 C.3   256  PRO256      0.0268
     54  CG        14.1060   -2.3810   20.4370 C.3   256  PRO256      0.0207
     55  CD        14.3090   -3.2630   19.1730 C.3   256  PRO256      0.0892
     56  N          9.6920    2.3420   18.2040 N.3   258  VAL258     -0.1245
     57  CA         8.5580    3.1150   18.6880 C.3   258  VAL258      0.1561
     58  C          8.0750    4.0220   17.5720 C.2   258  VAL258      0.2260
     59  O          8.8540    4.7960   17.0070 O.2   258  VAL258     -0.2867
     60  CB         8.9430    3.9220   19.9360 C.3   258  VAL258      0.0252
     61  CG1        7.8750    4.9600   20.2400 C.3   258  VAL258      0.0019
     62  CG2        9.1450    2.9760   21.1240 C.3   258  VAL258      0.0019
     63  N          4.7830    5.8770   17.6110 N.3   260  ASN260     -0.1225
     64  CA         3.6470    6.7510   17.8860 C.3   260  ASN260      0.1785
     65  C          4.0190    8.0350   18.6260 C.2   260  ASN260      0.2597
     66  O          3.1190    8.7520   19.0730 O.2   260  ASN260     -0.2718
     67  CB         2.5680    5.9970   18.6720 C.3   260  ASN260      0.1169
     68  CG         3.0430    5.5370   20.0460 C.2   260  ASN260      0.2627
     69  OD1        4.1920    5.7540   20.4370 O.2   260  ASN260     -0.2716
     70  ND2        2.1480    4.9030   20.7900 N.am  260  ASN260     -0.0877
     71  N          5.3030    8.3540   18.7620 N.am  261  MET261     -0.1979
     72  CA         5.6630    9.5790   19.4580 C.3   261  MET261      0.1605
     73  C          5.7880   10.7440   18.4820 C.2   261  MET261      0.2287
     74  O          5.7020   10.5850   17.2690 O.2   261  MET261     -0.2864
     75  CB         6.9510    9.3890   20.2470 C.3   261  MET261      0.0413
     76  CG         6.7540    8.4340   21.4130 C.3   261  MET261      0.0598
     77  SD         8.1050    8.5140   22.5700 S.3   261  MET261     -0.1393
     78  CE         7.6510    9.9620   23.5360 C.3   261  MET261      0.0692
     79  N         11.3270    5.4140   15.4390 N.3   275  PHE275     -0.1227
     80  CA        12.7320    5.2220   15.7610 C.3   275  PHE275      0.1736
     81  C         12.9300    3.8670   16.4290 C.2   275  PHE275      0.2596
     82  O         12.0140    3.2990   17.0190 O.2   275  PHE275     -0.2718
     83  CB        13.2670    6.3380   16.6620 C.3   275  PHE275      0.0547
     84  CG        12.4900    6.5230   17.9370 C.ar  275  PHE275     -0.0202
     85  CD1       12.7720    5.7560   19.0530 C.ar  275  PHE275     -0.0042
     86  CD2       11.4960    7.4910   18.0260 C.ar  275  PHE275     -0.0042
     87  CE1       12.0820    5.9470   20.2470 C.ar  275  PHE275     -0.0003
     88  CE2       10.7930    7.6770   19.2180 C.ar  275  PHE275     -0.0003
     89  CZ        11.0910    6.9060   20.3270 C.ar  275  PHE275     -0.0000
     90  N         14.1460    3.3470   16.3240 N.am  276  SER276     -0.1938
     91  CA        14.4000    1.9840   16.7470 C.3   276  SER276      0.2055
     92  C         15.8080    1.9150   17.2970 C.2   276  SER276      0.2644
     93  O         16.6800    2.6930   16.9080 O.2   276  SER276     -0.2714
     94  CB        14.2040    0.9520   15.6150 C.3   276  SER276      0.2130
     95  OG        15.1190    1.1440   14.5340 O.3   276  SER276     -0.2179
     96  N         16.0090    1.0140   18.2570 N.am  277  GLY277     -0.1939
     97  CA        17.3620    0.7120   18.6620 C.3   277  GLY277      0.2014
     98  C         17.4900   -0.7750   18.8670 C.2   277  GLY277      0.2639
     99  O         17.2590   -1.5500   17.9430 O.2   277  GLY277     -0.2714
    100  N         17.8220   -1.2020   20.0870 N.am  278  TRP278     -0.1959
    101  CA        17.8180   -2.6220   20.4110 C.3   278  TRP278      0.1771
    102  C         17.3340   -2.7670   21.8480 C.2   278  TRP278      0.2620
    103  O         17.3280   -1.8050   22.6160 O.2   278  TRP278     -0.2715
    104  CB        19.1990   -3.2600   20.2380 C.3   278  TRP278      0.0590
    105  CG        20.2750   -2.5150   20.9460 C.ar  278  TRP278      0.0006
    106  CD1       20.5830   -2.5750   22.2880 C.ar  278  TRP278      0.0946
    107  CD2       21.1840   -1.5800   20.3670 C.ar  278  TRP278      0.0152
    108  NE1       21.6320   -1.7360   22.5630 N.ar  278  TRP278     -0.2442
    109  CE2       22.0230   -1.1170   21.4030 C.ar  278  TRP278      0.0810
    110  CE3       21.3830   -1.0970   19.0670 C.ar  278  TRP278      0.0012
    111  CZ2       23.0380   -0.1910   21.1800 C.ar  278  TRP278      0.0191
    112  CZ3       22.3900   -0.1800   18.8490 C.ar  278  TRP278      0.0001
    113  CH2       23.2070    0.2640   19.9020 C.ar  278  TRP278      0.0015
    114  N         16.9110   -3.9760   22.1930 N.am  279  TYR279     -0.1960
    115  CA        16.2200   -4.2040   23.4550 C.3   279  TYR279      0.1771
    116  C         17.1840   -4.2630   24.6320 C.2   279  TYR279      0.2619
    117  O         18.3260   -4.7180   24.5160 O.2   279  TYR279     -0.2715
    118  CB        15.4380   -5.5140   23.4050 C.3   279  TYR279      0.0574
    119  CG        13.9960   -5.3960   22.9890 C.ar  279  TYR279     -0.0198
    120  CD1       13.5300   -6.0090   21.8130 C.ar  279  TYR279     -0.0009
    121  CD2       13.0950   -4.6890   23.7630 C.ar  279  TYR279     -0.0009
    122  CE1       12.1970   -5.9200   21.4460 C.ar  279  TYR279      0.0417
    123  CE2       11.7650   -4.5940   23.4100 C.ar  279  TYR279      0.0417
    124  CZ        11.3200   -5.2080   22.2430 C.ar  279  TYR279      0.1957
    125  OH         9.9920   -5.0990   21.9080 O.3   279  TYR279     -0.2866
    126  N         16.7020   -3.8110   25.7840 N.am  280  MET280     -0.1977
    127  CA        17.2380   -4.2690   27.0560 C.3   280  MET280      0.1605
    128  C         16.4360   -5.4940   27.4670 C.2   280  MET280      0.2287
    129  O         15.2090   -5.5040   27.3530 O.2   280  MET280     -0.2864
    130  CB        17.1480   -3.1700   28.1320 C.3   280  MET280      0.0413
    131  CG        17.8260   -3.5150   29.4680 C.3   280  MET280      0.0598
    132  SD        18.0350   -2.0490   30.5300 S.3   280  MET280     -0.1393
    133  CE        16.3280   -1.6760   30.9140 C.3   280  MET280      0.0692
    134  N         12.8850   -5.4130   29.2420 N.3   283  GLU283     -0.1245
    135  CA        11.6650   -4.9930   28.5550 C.3   283  GLU283      0.1567
    136  C         10.8280   -6.2020   28.1440 C.2   283  GLU283      0.2260
    137  O          9.6090   -6.2400   28.3600 O.2   283  GLU283     -0.2867
    138  CB        12.0080   -4.1480   27.3340 C.3   283  GLU283      0.0388
    139  CG        12.8660   -2.9370   27.6420 C.3   283  GLU283      0.1160
    140  CD        13.2730   -2.2070   26.3660 C.2   283  GLU283      0.3649
    141  OE1       12.3900   -1.5740   25.7620 O.co2 283  GLU283     -0.2457
    142  OE2       14.4550   -2.2840   25.9580 O.co2 283  GLU283     -0.2457
    143  N         12.0030    5.8310   35.4610 N.3   369  TRP369     -0.1241
    144  CA        12.0940    5.0390   34.2340 C.3   369  TRP369      0.1605
    145  C         13.4610    4.3990   34.0180 C.2   369  TRP369      0.2264
    146  O         13.5450    3.3340   33.3930 O.2   369  TRP369     -0.2867
    147  CB        11.7260    5.9110   33.0230 C.3   369  TRP369      0.0550
    148  CG        10.2410    5.9780   32.8540 C.ar  369  TRP369      0.0003
    149  CD1        9.3290    6.5170   33.7320 C.ar  369  TRP369      0.0946
    150  CD2        9.4830    5.4470   31.7620 C.ar  369  TRP369      0.0152
    151  NE1        8.0560    6.3540   33.2380 N.ar  369  TRP369     -0.2442
    152  CE2        8.1250    5.7080   32.0300 C.ar  369  TRP369      0.0810
    153  CE3        9.8230    4.7890   30.5770 C.ar  369  TRP369      0.0012
    154  CZ2        7.1070    5.3300   31.1540 C.ar  369  TRP369      0.0191
    155  CZ3        8.8110    4.4140   29.7070 C.ar  369  TRP369      0.0001
    156  CH2        7.4700    4.6870   30.0010 C.ar  369  TRP369      0.0015
    157  N          4.8010   12.6100   23.7900 N.3   397  TYR397     -0.1241
    158  CA         3.6330   11.7820   23.5540 C.3   397  TYR397      0.1605
    159  C          2.6050   12.5610   22.7490 C.2   397  TYR397      0.2264
    160  O          2.6250   13.7910   22.6910 O.2   397  TYR397     -0.2867
    161  CB         3.0130   11.3200   24.8790 C.3   397  TYR397      0.0534
    162  CG         3.8350   10.2910   25.6280 C.ar  397  TYR397     -0.0201
    163  CD1        3.7970    8.9470   25.2660 C.ar  397  TYR397     -0.0009
    164  CD2        4.6440   10.6590   26.6990 C.ar  397  TYR397     -0.0009
    165  CE1        4.5420    7.9990   25.9430 C.ar  397  TYR397      0.0417
    166  CE2        5.3940    9.7150   27.3880 C.ar  397  TYR397      0.0417
    167  CZ         5.3350    8.3870   27.0010 C.ar  397  TYR397      0.1957
    168  OH         6.0660    7.4280   27.6660 O.3   397  TYR397     -0.2866
@<TRIPOS>BOND
     1    95    94    1
     2    79    80    1
     3    94    91    1
     4    80    81    1
     5    80    83    1
     6    32    31    2
     7    31    30    1
     8    90    81   am
     9    90    91    1
    10    81    82    2
    11    41    40    2
    12    38    39    1
    13    83    84    1
    14    91    92    1
    15    93    92    2
    16    59    58    2
    17    74    73    2
    18    92    96   am
    19    30    29    1
    20    30    33    1
    21    58    57    1
    22    63    64    1
    23    40    39    1
    24    23    24    1
    25    39    42    1
    26    64    65    1
    27    64    67    1
    28    84    86   ar
    29    84    85   ar
    30    99    98    2
    31    29    25   am
    32    86    88   ar
    33    56    57    1
    34    96    97    1
    35    52    51    2
    36    51    50    1
    37    73    72    1
    38    33    34    1
    39    42    43    1
    40    25    24    1
    41    25    26    2
    42    49    55    1
    43    49    50    1
    44    65    71   am
    45    65    66    2
    46    97    98    1
    47    67    68    1
    48    57    60    1
    49    24    27    1
    50    71    72    1
    51   112   110   ar
    52   112   113   ar
    53    98   100   am
    54    85    87   ar
    55   110   107   ar
    56    55    54    1
    57    50    53    1
    58    88    89   ar
    59    72    75    1
    60    34    35    1
    61    43    44    1
    62   113   111   ar
    63    60    61    1
    64    60    62    1
    65    68    69    2
    66    68    70   am
    67   100   101    1
    68    27    28    1
    69    36    35    2
    70   104   101    1
    71   104   105    1
    72    75    76    1
    73    87    89   ar
    74   107   105   ar
    75   107   109   ar
    76   101   102    1
    77    54    53    1
    78    35    37   am
    79    44    45    1
    80   105   106   ar
    81   111   109   ar
    82   109   108   ar
    83    76    77    1
    84   122   120   ar
    85   122   124   ar
    86   120   119   ar
    87   102   114   am
    88   102   103    2
    89   125   124    1
    90    45    46    2
    91   114   115    1
    92   124   123   ar
    93   106   108   ar
    94    77    78    1
    95   160   159    2
    96   159   158    1
    97    47    46    1
    98   119   118    1
    99   119   121   ar
   100    46    48    1
   101   118   115    1
   102   123   121   ar
   103   115   116    1
   104   158   157    1
   105   158   161    1
   106   117   116    2
   107   116   126   am
   108   161   162    1
   109   163   162   ar
   110   163   165   ar
   111    22    21    1
   112   162   164   ar
   113   141   140   ar
   114   126   127    1
   115   165   167   ar
   116   142   140   ar
   117   140   139    1
   118    21    18    1
   119   164   166   ar
   120   167   166   ar
   121   167   168    1
   122   127   128    1
   123   127   130    1
   124   138   139    1
   125   138   135    1
   126   129   128    2
   127    18    19    1
   128    18    17    1
   129   130   131    1
   130   136   137    2
   131   136   135    1
   132   135   134    1
   133    19    20    2
   134    16    14    1
   135   131   132    1
   136    15    14    1
   137   155   156   ar
   138   155   153   ar
   139    14    13    1
   140   156   154   ar
   141    13    10    1
   142   132   133    1
   143   153   150   ar
   144   154   152   ar
   145    10    11    1
   146    10     9    1
   147     4     3    2
   148     6     7    1
   149     6     5    1
   150   150   152   ar
   151   150   148   ar
   152     7     8    1
   153   152   151   ar
   154    11    12    2
   155     9     3   am
   156     3     2    1
   157   148   147    1
   158   148   149   ar
   159   147   144    1
   160     5     2    1
   161   151   149   ar
   162   146   145    2
   163     2     1    1
   164   145   144    1
   165   144   143    1
