@<TRIPOS>MOLECULE
tmp/6ngwB03.pdb
 181 177 0 0 0
SMALL
GASTEIGER

@<TRIPOS>ATOM
      1  N         18.0920   12.2850   47.4840 N.3    38  MET38      -0.1230
      2  CA        17.9440   11.6000   48.7710 C.3    38  MET38       0.1702
      3  C         17.5440   12.5610   49.8970 C.2    38  MET38       0.2592
      4  O         16.6160   12.2840   50.6630 O.2    38  MET38      -0.2718
      5  CB        19.2430   10.8720   49.1140 C.3    38  MET38       0.0401
      6  CG        19.3200   10.3370   50.5320 C.3    38  MET38       0.0596
      7  SD        19.0770    8.5560   50.6010 S.3    38  MET38      -0.1393
      8  CE        20.1980    8.0140   49.3220 C.3    38  MET38       0.0692
      9  N         18.2340   13.6880   50.0310 N.am   39  LEU39      -0.1980
     10  CA        17.8950   14.6770   51.0590 C.3    39  LEU39       0.1596
     11  C         17.6320   16.0410   50.4400 C.2    39  LEU39       0.2287
     12  O         18.5750   16.8050   50.1910 O.2    39  LEU39      -0.2864
     13  CB        18.9880   14.7850   52.1270 C.3    39  LEU39       0.0297
     14  CG        20.1970   13.8550   52.1090 C.3    39  LEU39       0.0022
     15  CD1       21.4550   14.6770   51.8450 C.3    39  LEU39       0.0001
     16  CD2       20.3180   13.0770   53.4060 C.3    39  LEU39       0.0001
     17  N         22.1970    6.0260   64.4580 N.3   170  SER170     -0.1202
     18  CA        21.2020    6.1520   63.3990 C.3   170  SER170      0.2020
     19  C         20.0570    5.1720   63.6060 C.2   170  SER170      0.2618
     20  O         18.9090    5.4910   63.2900 O.2   170  SER170     -0.2717
     21  CB        21.8570    5.9210   62.0270 C.3   170  SER170      0.2103
     22  OG        22.4520    4.6340   61.9800 O.3   170  SER170     -0.2182
     23  N         20.3580    3.9760   64.1190 N.am  171  GLN171     -0.1979
     24  CA        19.3640    3.0000   64.5320 C.3   171  GLN171      0.1601
     25  C         19.7640    2.4870   65.9050 C.2   171  GLN171      0.2287
     26  O         20.9530    2.4490   66.2370 O.2   171  GLN171     -0.2864
     27  CB        19.2450    1.8000   63.5630 C.3   171  GLN171      0.0394
     28  CG        18.7610    2.1030   62.1290 C.3   171  GLN171      0.0908
     29  CD        18.7250    0.8350   61.2600 C.2   171  GLN171      0.2608
     30  OE1       18.6630   -0.2860   61.7790 O.2   171  GLN171     -0.2717
     31  NE2       18.7810    1.0090   59.9400 N.am  171  GLN171     -0.0878
     32  N         22.4850   -1.8160   65.5090 N.3   174  ARG174     -0.1245
     33  CA        23.2840   -1.8410   64.2880 C.3   174  ARG174      0.1563
     34  C         24.6260   -2.4830   64.5970 C.2   174  ARG174      0.2260
     35  O         25.0890   -2.4630   65.7400 O.2   174  ARG174     -0.2867
     36  CB        23.5090   -0.4370   63.7260 C.3   174  ARG174      0.0307
     37  CG        22.3100    0.1130   62.9910 C.3   174  ARG174      0.0489
     38  CD        22.6990    1.1200   61.9530 C.3   174  ARG174      0.2205
     39  NE        22.8840    0.4930   60.6570 N.pl3 174  ARG174     -0.0865
     40  CZ        23.0030    1.1680   59.5220 C.cat 174  ARG174      0.5346
     41  NH1       22.9500    2.4920   59.5330 N.pl3 174  ARG174      0.1354
     42  NH2       23.1770    0.5220   58.3800 N.pl3 174  ARG174      0.1354
     43  N         14.1100   -3.3830   63.6070 N.3   258  PRO258     -0.2116
     44  CA        14.5480   -2.1510   62.9400 C.3   258  PRO258      0.1372
     45  C         14.0290   -0.9360   63.6920 C.2   258  PRO258      0.2244
     46  O         12.8130   -0.7770   63.8130 O.2   258  PRO258     -0.2868
     47  CB        13.9180   -2.2700   61.5420 C.3   258  PRO258      0.0268
     48  CG        12.6260   -3.0570   61.7870 C.3   258  PRO258      0.0207
     49  CD        12.8800   -3.9430   63.0080 C.3   258  PRO258      0.0892
     50  N         14.6330    3.1660   63.9360 N.3   260  VAL260     -0.1245
     51  CA        15.2680    4.4020   63.4790 C.3   260  VAL260      0.1561
     52  C         15.3390    5.3990   64.6260 C.2   260  VAL260      0.2260
     53  O         14.3180    5.7120   65.2380 O.2   260  VAL260     -0.2867
     54  CB        14.4840    5.0090   62.3190 C.3   260  VAL260      0.0252
     55  CG1       15.0100    6.4070   62.0230 C.3   260  VAL260      0.0019
     56  CG2       14.5860    4.0830   61.0920 C.3   260  VAL260      0.0019
     57  N         17.5270    8.5560   64.4130 N.3   262  ASN262     -0.1225
     58  CA        18.1550    9.8320   64.1020 C.3   262  ASN262      0.1785
     59  C         17.2060   10.8410   63.4640 C.2   262  ASN262      0.2597
     60  O         17.6570   11.9060   63.0220 O.2   262  ASN262     -0.2718
     61  CB        19.3760    9.6270   63.1950 C.3   262  ASN262      0.1169
     62  CG        19.0490    8.8900   61.9170 C.2   262  ASN262      0.2627
     63  OD1       17.8880    8.6220   61.5980 O.2   262  ASN262     -0.2716
     64  ND2       20.0850    8.5610   61.1680 N.am  262  ASN262     -0.0877
     65  N         15.9150   10.5580   63.4010 N.am  263  MET263     -0.1979
     66  CA        15.0270   11.4990   62.7410 C.3   263  MET263      0.1605
     67  C         14.3740   12.4430   63.7450 C.2   263  MET263      0.2287
     68  O         14.4340   12.2380   64.9590 O.2   263  MET263     -0.2864
     69  CB        13.9860   10.7550   61.9080 C.3   263  MET263      0.0413
     70  CG        14.6230   10.1570   60.6270 C.3   263  MET263      0.0598
     71  SD        13.3650    9.4510   59.5640 S.3   263  MET263     -0.1393
     72  CE        12.8230   10.9140   58.6740 C.3   263  MET263      0.0692
     73  N         11.8630    5.1420   66.8220 N.3   277  PHE277     -0.1227
     74  CA        10.6590    4.3930   66.4940 C.3   277  PHE277      0.1736
     75  C         11.0420    3.0750   65.8220 C.2   277  PHE277      0.2596
     76  O         12.1120    2.9540   65.2260 O.2   277  PHE277     -0.2718
     77  CB         9.7030    5.2260   65.6140 C.3   277  PHE277      0.0547
     78  CG        10.3240    5.7340   64.3110 C.ar  277  PHE277     -0.0202
     79  CD1       10.3630    4.9270   63.1780 C.ar  277  PHE277     -0.0042
     80  CD2       10.8120    7.0340   64.2170 C.ar  277  PHE277     -0.0042
     81  CE1       10.8880    5.3990   61.9750 C.ar  277  PHE277     -0.0003
     82  CE2       11.3470    7.5120   63.0250 C.ar  277  PHE277     -0.0003
     83  CZ        11.3830    6.6870   61.8880 C.ar  277  PHE277     -0.0000
     84  N         10.1710    2.0740   65.9520 N.am  278  SER278     -0.1938
     85  CA        10.5110    0.7370   65.4790 C.3   278  SER278      0.2055
     86  C          9.2720    0.0510   64.9260 C.2   278  SER278      0.2644
     87  O          8.1480    0.3140   65.3560 O.2   278  SER278     -0.2714
     88  CB        11.1380   -0.1290   66.5880 C.3   278  SER278      0.2130
     89  OG        10.2620   -0.2370   67.7100 O.3   278  SER278     -0.2179
     90  N          9.4950   -0.8330   63.9590 N.am  279  GLY279     -0.1939
     91  CA         8.4280   -1.6580   63.4410 C.3   279  GLY279      0.2014
     92  C          8.9000   -3.0880   63.2980 C.2   279  GLY279      0.2639
     93  O          9.4120   -3.6790   64.2580 O.2   279  GLY279     -0.2714
     94  N          8.7320   -3.6610   62.1090 N.am  280  TRP280     -0.1959
     95  CA         9.3530   -4.9300   61.7740 C.3   280  TRP280      0.1771
     96  C          9.8800   -4.8570   60.3400 C.2   280  TRP280      0.2620
     97  O          9.4750   -4.0020   59.5460 O.2   280  TRP280     -0.2715
     98  CB         8.3920   -6.1100   61.9380 C.3   280  TRP280      0.0590
     99  CG         7.0680   -5.9490   61.2570 C.ar  280  TRP280      0.0006
    100  CD1        6.7850   -6.1760   59.9330 C.ar  280  TRP280      0.0946
    101  CD2        5.8390   -5.5430   61.8660 C.ar  280  TRP280      0.0152
    102  NE1        5.4540   -5.9300   59.6870 N.ar  280  TRP280     -0.2442
    103  CE2        4.8540   -5.5380   60.8580 C.ar  280  TRP280      0.0810
    104  CE3        5.4730   -5.1870   63.1720 C.ar  280  TRP280      0.0012
    105  CZ2        3.5280   -5.1890   61.1120 C.ar  280  TRP280      0.0191
    106  CZ3        4.1540   -4.8380   63.4230 C.ar  280  TRP280      0.0001
    107  CH2        3.1950   -4.8520   62.3980 C.ar  280  TRP280      0.0015
    108  N         10.7830   -5.7730   60.0210 N.am  281  TYR281     -0.1960
    109  CA        11.5030   -5.7100   58.7500 C.3   281  TYR281      0.1771
    110  C         10.6590   -6.1900   57.5750 C.2   281  TYR281      0.2619
    111  O          9.8500   -7.1130   57.6990 O.2   281  TYR281     -0.2715
    112  CB        12.7690   -6.5570   58.8170 C.3   281  TYR281      0.0574
    113  CG        14.0250   -5.7980   59.1680 C.ar  281  TYR281     -0.0198
    114  CD1       14.7010   -6.0400   60.3660 C.ar  281  TYR281     -0.0009
    115  CD2       14.5470   -4.8500   58.2990 C.ar  281  TYR281     -0.0009
    116  CE1       15.8650   -5.3470   60.6830 C.ar  281  TYR281      0.0417
    117  CE2       15.7120   -4.1630   58.5970 C.ar  281  TYR281      0.0417
    118  CZ        16.3670   -4.4180   59.7920 C.ar  281  TYR281      0.1957
    119  OH        17.5250   -3.7380   60.0810 O.3   281  TYR281     -0.2866
    120  N         10.8490   -5.5390   56.4340 N.am  282  MET282     -0.1977
    121  CA        10.5550   -6.1320   55.1260 C.3   282  MET282      0.1605
    122  C         11.8190   -6.8380   54.6570 C.2   282  MET282      0.2287
    123  O         12.9210   -6.2960   54.7830 O.2   282  MET282     -0.2864
    124  CB        10.1140   -5.0710   54.1170 C.3   282  MET282      0.0413
    125  CG         9.7080   -5.6440   52.7250 C.3   282  MET282      0.0598
    126  SD         8.8860   -4.4420   51.6260 S.3   282  MET282     -0.1393
    127  CE        10.2730   -3.3660   51.2420 C.3   282  MET282      0.0692
    128  N         14.9470   -5.2970   52.9100 N.3   285  GLU285     -0.1245
    129  CA        15.8500   -4.3740   53.5840 C.3   285  GLU285      0.1567
    130  C         17.1390   -5.0780   53.9760 C.2   285  GLU285      0.2260
    131  O         18.2300   -4.5190   53.8310 O.2   285  GLU285     -0.2867
    132  CB        15.1790   -3.7540   54.8170 C.3   285  GLU285      0.0388
    133  CG        13.8840   -3.0100   54.5090 C.3   285  GLU285      0.1160
    134  CD        13.2260   -2.4550   55.7730 C.2   285  GLU285      0.3649
    135  OE1       13.7550   -1.4600   56.3070 O.co2 285  GLU285     -0.2457
    136  OE2       12.1940   -3.0050   56.2310 O.co2 285  GLU285     -0.2457
    137  N         27.8190   -2.1810   51.4560 N.3   296  ARG296     -0.1245
    138  CA        27.4350   -2.7760   52.7430 C.3   296  ARG296      0.1563
    139  C         28.1640   -4.1060   52.9330 C.2   296  ARG296      0.2260
    140  O         29.3810   -4.1630   52.7360 O.2   296  ARG296     -0.2867
    141  CB        25.9180   -2.9460   52.8310 C.3   296  ARG296      0.0307
    142  CG        25.1280   -1.6460   52.6850 C.3   296  ARG296      0.0489
    143  CD        25.3380   -0.7050   53.8650 C.3   296  ARG296      0.2205
    144  NE        24.9650   -1.3390   55.1390 N.pl3 296  ARG296     -0.0865
    145  CZ        23.7130   -1.5380   55.5380 C.cat 296  ARG296      0.5346
    146  NH1       22.7000   -1.1540   54.7730 N.pl3 296  ARG296      0.1354
    147  NH2       23.4640   -2.1050   56.7200 N.pl3 296  ARG296      0.1354
    148  N         10.9810    5.4230   46.7420 N.3   371  TRP371     -0.1241
    149  CA        11.2700    4.6540   47.9420 C.3   371  TRP371      0.1605
    150  C         10.2990    3.5020   48.1810 C.2   371  TRP371      0.2264
    151  O         10.6930    2.4880   48.7730 O.2   371  TRP371     -0.2867
    152  CB        11.2700    5.6000   49.1610 C.3   371  TRP371      0.0550
    153  CG        12.5970    6.2910   49.4190 C.ar  371  TRP371      0.0003
    154  CD1       13.2440    7.1960   48.6120 C.ar  371  TRP371      0.0946
    155  CD2       13.4260    6.1330   50.5840 C.ar  371  TRP371      0.0152
    156  NE1       14.4300    7.5930   49.2050 N.ar  371  TRP371     -0.2442
    157  CE2       14.5580    6.9550   50.4130 C.ar  371  TRP371      0.0810
    158  CE3       13.3180    5.3720   51.7480 C.ar  371  TRP371      0.0012
    159  CZ2       15.5710    7.0390   51.3750 C.ar  371  TRP371      0.0191
    160  CZ3       14.3280    5.4570   52.7020 C.ar  371  TRP371      0.0001
    161  CH2       15.4340    6.2810   52.5040 C.ar  371  TRP371      0.0015
    162  N         14.5440   14.6450   58.4330 N.3   399  TYR399     -0.1241
    163  CA        15.9640   14.4400   58.6420 C.3   399  TYR399      0.1605
    164  C         16.5380   15.5990   59.4390 C.2   399  TYR399      0.2264
    165  O         15.9980   16.7100   59.4500 O.2   399  TYR399     -0.2867
    166  CB        16.7010   14.3240   57.3060 C.3   399  TYR399      0.0534
    167  CG        16.3570   13.0790   56.5340 C.ar  399  TYR399     -0.0201
    168  CD1       15.7310   13.1610   55.2990 C.ar  399  TYR399     -0.0009
    169  CD2       16.6590   11.8220   57.0350 C.ar  399  TYR399     -0.0009
    170  CE1       15.4210   12.0230   54.5810 C.ar  399  TYR399      0.0417
    171  CE2       16.3500   10.6770   56.3270 C.ar  399  TYR399      0.0417
    172  CZ        15.7320   10.7860   55.1000 C.ar  399  TYR399      0.1957
    173  OH        15.4250    9.6580   54.3790 O.3   399  TYR399     -0.2866
    174  N         23.6800   15.0680   61.4420 N.3   402  ASP402     -0.1239
    175  CA        24.3050   14.1590   62.3840 C.3   402  ASP402      0.1674
    176  C         24.8570   14.9690   63.5510 C.2   402  ASP402      0.2266
    177  O         25.4940   16.0090   63.3330 O.2   402  ASP402     -0.2867
    178  CB        25.4080   13.3420   61.7180 C.3   402  ASP402      0.1410
    179  CG        24.8620   12.2000   60.8670 C.2   402  ASP402      0.3668
    180  OD1       23.8150   11.6100   61.2280 O.co2 402  ASP402     -0.2456
    181  OD2       25.4890   11.8900   59.8320 O.co2 402  ASP402     -0.2456
@<TRIPOS>BOND
     1   148   149    1
     2     1     2    1
     3   149   150    1
     4   149   152    1
     5   150   151    2
     6   154   156   ar
     7   154   153   ar
     8     2     5    1
     9     2     3    1
    10     5     6    1
    11   152   153    1
    12   156   157   ar
    13     8     7    1
    14   153   155   ar
    15     3     9   am
    16     3     4    2
    17     9    10    1
    18    12    11    2
    19   157   155   ar
    20   157   159   ar
    21    11    10    1
    22     6     7    1
    23   155   158   ar
    24    10    13    1
    25   127   126    1
    26   159   161   ar
    27   137   138    1
    28   126   125    1
    29   158   160   ar
    30    15    14    1
    31    14    13    1
    32    14    16    1
    33   161   160   ar
    34   142   141    1
    35   142   143    1
    36   125   124    1
    37   140   139    2
    38   138   141    1
    39   138   139    1
    40   128   129    1
    41   129   130    1
    42   129   132    1
    43   131   130    2
    44   143   144    1
    45   124   121    1
    46   173   172    1
    47   133   132    1
    48   133   134    1
    49   170   172   ar
    50   170   168   ar
    51   122   123    2
    52   122   121    1
    53   146   145    1
    54   172   171   ar
    55   121   120    1
    56   144   145    2
    57   168   167   ar
    58   145   147    1
    59   134   136   ar
    60   134   135   ar
    61   171   169   ar
    62   120   110   am
    63   167   169   ar
    64   167   166    1
    65   166   163    1
    66   110   111    2
    67   110   109    1
    68   115   117   ar
    69   115   113   ar
    70    42    40    1
    71   162   163    1
    72   117   118   ar
    73   163   164    1
    74    72    71    1
    75   109   112    1
    76   109   108    1
    77   112   113    1
    78   113   114   ar
    79   164   165    2
    80    40    41    1
    81    40    39    2
    82    97    96    2
    83    71    70    1
    84   102   100   ar
    85   102   103   ar
    86   118   119    1
    87   118   116   ar
    88   181   179   ar
    89   100    99   ar
    90    31    29   am
    91   108    96   am
    92    96    95    1
    93   114   116   ar
    94    70    69    1
    95    39    38    1
    96   103   105   ar
    97   103   101   ar
    98   179   180   ar
    99   179   178    1
   100    56    54    1
   101   105   107   ar
   102    64    62   am
   103    99   101   ar
   104    99    98    1
   105    29    30    2
   106    29    28    1
   107   174   175    1
   108    47    48    1
   109    47    44    1
   110    63    62    2
   111   178   175    1
   112    95    98    1
   113    95    94    1
   114    48    49    1
   115   101   104   ar
   116    83    81   ar
   117    83    82   ar
   118    69    66    1
   119    62    61    1
   120    38    37    1
   121    81    79   ar
   122    22    21    1
   123    55    54    1
   124    21    18    1
   125    94    92   am
   126    28    27    1
   127    54    51    1
   128   175   176    1
   129   107   106   ar
   130    66    65    1
   131    66    67    1
   132    44    43    1
   133    44    45    1
   134    37    36    1
   135    49    43    1
   136    60    59    2
   137    82    80   ar
   138   104   106   ar
   139    79    78   ar
   140    61    58    1
   141    20    19    2
   142    92    91    1
   143    92    93    2
   144   177   176    2
   145    18    19    1
   146    18    17    1
   147    65    59   am
   148    91    90    1
   149    59    58    1
   150    51    50    1
   151    51    52    1
   152    27    24    1
   153    19    23   am
   154    45    46    2
   155    36    33    1
   156    67    68    2
   157    90    86   am
   158    58    57    1
   159    23    24    1
   160    80    78   ar
   161    33    34    1
   162    33    32    1
   163    78    77    1
   164    24    25    1
   165    34    35    2
   166    52    53    2
   167    86    87    2
   168    86    85    1
   169    76    75    2
   170    85    84    1
   171    85    88    1
   172    77    74    1
   173    75    84   am
   174    75    74    1
   175    25    26    2
   176    74    73    1
   177    88    89    1
