@<TRIPOS>MOLECULE
tmp/6ngyB03.pdb
 189 183 0 0 0
SMALL
GASTEIGER

@<TRIPOS>ATOM
      1  N         18.0890   12.3600   47.5780 N.3    38  MET38      -0.1230
      2  CA        17.8710   11.6090   48.8140 C.3    38  MET38       0.1702
      3  C         17.5140   12.5340   49.9740 C.2    38  MET38       0.2592
      4  O         16.5390   12.2900   50.6890 O.2    38  MET38      -0.2718
      5  CB        19.0960   10.7550   49.1510 C.3    38  MET38       0.0401
      6  CG        18.7900    9.7220   50.2380 C.3    38  MET38       0.0596
      7  SD        19.7190    8.1910   50.0470 S.3    38  MET38      -0.1393
      8  CE        21.1040    8.5390   51.1130 C.3    38  MET38       0.0692
      9  N         18.2700   13.6160   50.1600 N.am   39  LEU39      -0.1980
     10  CA        18.0340   14.5740   51.2420 C.3    39  LEU39       0.1596
     11  C         17.8560   15.9580   50.6430 C.2    39  LEU39       0.2287
     12  O         18.7960   16.7620   50.6330 O.2    39  LEU39      -0.2864
     13  CB        19.1870   14.5820   52.2440 C.3    39  LEU39       0.0297
     14  CG        19.7800   13.2460   52.6890 C.3    39  LEU39       0.0022
     15  CD1       21.0700   13.5080   53.4450 C.3    39  LEU39       0.0001
     16  CD2       18.7930   12.4530   53.5440 C.3    39  LEU39       0.0001
     17  N          7.2150    5.6120   53.4540 N.3   113  CYS113     -0.1235
     18  CA         7.0570    4.3960   54.2540 C.3   113  CYS113      0.1677
     19  C          5.9970    3.4810   53.6530 C.2   113  CYS113      0.2270
     20  O          4.8180    3.8440   53.5910 O.2   113  CYS113     -0.2867
     21  CB         6.6900    4.7280   55.7070 C.3   113  CYS113      0.0956
     22  SG         6.3250    3.2560   56.6910 S.3   113  CYS113     -0.0801
     23  N         20.3590    3.9280   64.2590 N.3   176  GLN176     -0.1245
     24  CA        19.3650    2.9440   64.6560 C.3   176  GLN176      0.1566
     25  C         19.7420    2.4040   66.0290 C.2   176  GLN176      0.2260
     26  O         20.9230    2.3600   66.3820 O.2   176  GLN176     -0.2867
     27  CB        19.2650    1.7580   63.6610 C.3   176  GLN176      0.0367
     28  CG        18.7510    2.1160   62.2730 C.3   176  GLN176      0.0905
     29  CD        18.7370    0.9070   61.3280 C.2   176  GLN176      0.2608
     30  OE1       18.6010   -0.2350   61.7680 O.2   176  GLN176     -0.2717
     31  NE2       18.8880    1.1580   60.0300 N.am  176  GLN176     -0.0878
     32  N         22.4870   -1.8920   65.6840 N.3   179  ARG179     -0.1245
     33  CA        23.2660   -1.8350   64.4510 C.3   179  ARG179      0.1563
     34  C         24.6110   -2.5020   64.6890 C.2   179  ARG179      0.2260
     35  O         25.1380   -2.4680   65.8070 O.2   179  ARG179     -0.2867
     36  CB        23.4890   -0.3870   63.9750 C.3   179  ARG179      0.0307
     37  CG        22.2980    0.1930   63.2280 C.3   179  ARG179      0.0489
     38  CD        22.7080    1.1140   62.1020 C.3   179  ARG179      0.2205
     39  NE        22.7160    0.4280   60.8150 N.pl3 179  ARG179     -0.0865
     40  CZ        22.8450    1.0500   59.6480 C.cat 179  ARG179      0.5346
     41  NH1       22.9700    2.3680   59.6120 N.pl3 179  ARG179      0.1354
     42  NH2       22.8450    0.3540   58.5210 N.pl3 179  ARG179      0.1354
     43  N         28.5700    0.6550   56.5370 N.3   195  ALA195     -0.1245
     44  CA        27.7380    1.8240   56.8030 C.3   195  ALA195      0.1562
     45  C         28.0110    2.4650   58.1610 C.2   195  ALA195      0.2260
     46  O         27.6920    3.6430   58.3470 O.2   195  ALA195     -0.2867
     47  CB        26.2560    1.4470   56.7160 C.3   195  ALA195      0.0290
     48  N         14.0510   -3.4300   63.6630 N.3   263  PRO263     -0.2116
     49  CA        14.4810   -2.1890   63.0030 C.3   263  PRO263      0.1372
     50  C         13.9410   -0.9870   63.7660 C.2   263  PRO263      0.2244
     51  O         12.7280   -0.8350   63.9220 O.2   263  PRO263     -0.2868
     52  CB        13.8470   -2.2980   61.6070 C.3   263  PRO263      0.0268
     53  CG        12.5440   -3.0200   61.8590 C.3   263  PRO263      0.0207
     54  CD        12.8280   -3.9830   63.0470 C.3   263  PRO263      0.0892
     55  N         14.5760    3.1250   64.1120 N.3   265  VAL265     -0.1245
     56  CA        15.2330    4.3280   63.6110 C.3   265  VAL265      0.1561
     57  C         15.3200    5.3610   64.7290 C.2   265  VAL265      0.2260
     58  O         14.3060    5.7120   65.3440 O.2   265  VAL265     -0.2867
     59  CB        14.4720    4.8740   62.4010 C.3   265  VAL265      0.0252
     60  CG1       15.0020    6.2430   62.0240 C.3   265  VAL265      0.0019
     61  CG2       14.5820    3.8530   61.2200 C.3   265  VAL265      0.0019
     62  N         17.5160    8.4730   64.6290 N.3   267  ASN267     -0.1225
     63  CA        18.1900    9.7390   64.3510 C.3   267  ASN267      0.1785
     64  C         17.2870   10.7480   63.6540 C.2   267  ASN267      0.2597
     65  O         17.7870   11.7390   63.1190 O.2   267  ASN267     -0.2718
     66  CB        19.4580    9.5200   63.5180 C.3   267  ASN267      0.1169
     67  CG        19.1710    8.8540   62.2100 C.2   267  ASN267      0.2627
     68  OD1       18.0240    8.5390   61.9010 O.2   267  ASN267     -0.2716
     69  ND2       20.2160    8.6290   61.4230 N.am  267  ASN267     -0.0877
     70  N         15.9790   10.5370   63.6560 N.am  268  MET268     -0.1979
     71  CA        15.0990   11.4620   62.9600 C.3   268  MET268      0.1605
     72  C         14.4190   12.4080   63.9430 C.2   268  MET268      0.2287
     73  O         14.4210   12.1940   65.1520 O.2   268  MET268     -0.2864
     74  CB        14.0880   10.6950   62.1090 C.3   268  MET268      0.0413
     75  CG        14.7830   10.1160   60.8570 C.3   268  MET268      0.0598
     76  SD        13.6340    9.5970   59.5950 S.3   268  MET268     -0.1393
     77  CE        13.1940   11.1600   58.8280 C.3   268  MET268      0.0692
     78  N         11.8950    5.0560   66.9690 N.3   282  PHE282     -0.1227
     79  CA        10.6910    4.3230   66.6040 C.3   282  PHE282      0.1736
     80  C         11.0710    3.0130   65.9180 C.2   282  PHE282      0.2596
     81  O         12.1510    2.8810   65.3490 O.2   282  PHE282     -0.2718
     82  CB         9.7410    5.1900   65.7290 C.3   282  PHE282      0.0547
     83  CG        10.3570    5.7390   64.4520 C.ar  282  PHE282     -0.0202
     84  CD1       10.4850    4.9260   63.3320 C.ar  282  PHE282     -0.0042
     85  CD2       10.7500    7.0740   64.3480 C.ar  282  PHE282     -0.0042
     86  CE1       11.0160    5.4160   62.1240 C.ar  282  PHE282     -0.0003
     87  CE2       11.3070    7.5650   63.1410 C.ar  282  PHE282     -0.0003
     88  CZ        11.4230    6.7260   62.0280 C.ar  282  PHE282     -0.0000
     89  N         10.2050    2.0140   66.0400 N.am  283  SER283     -0.1938
     90  CA        10.5500    0.6810   65.5580 C.3   283  SER283      0.2055
     91  C          9.3160   -0.0060   65.0040 C.2   283  SER283      0.2644
     92  O          8.1930    0.2690   65.4200 O.2   283  SER283     -0.2714
     93  CB        11.1820   -0.1930   66.6610 C.3   283  SER283      0.2130
     94  OG        10.3030   -0.3250   67.7700 O.3   283  SER283     -0.2179
     95  N          9.5370   -0.9080   64.0520 N.am  284  GLY284     -0.1939
     96  CA         8.4440   -1.7090   63.5700 C.3   284  GLY284      0.2014
     97  C          8.9120   -3.1360   63.4100 C.2   284  GLY284      0.2639
     98  O          9.4130   -3.7500   64.3590 O.2   284  GLY284     -0.2714
     99  N          8.7820   -3.6580   62.1930 N.am  285  TRP285     -0.1959
    100  CA         9.3670   -4.9310   61.8370 C.3   285  TRP285      0.1771
    101  C          9.8530   -4.8360   60.3930 C.2   285  TRP285      0.2620
    102  O          9.4290   -3.9680   59.6340 O.2   285  TRP285     -0.2715
    103  CB         8.3740   -6.0760   62.0150 C.3   285  TRP285      0.0590
    104  CG         7.0690   -5.8820   61.3260 C.ar  285  TRP285      0.0006
    105  CD1        6.7910   -6.1120   59.9980 C.ar  285  TRP285      0.0946
    106  CD2        5.8440   -5.4490   61.9220 C.ar  285  TRP285      0.0152
    107  NE1        5.4710   -5.8300   59.7400 N.ar  285  TRP285     -0.2442
    108  CE2        4.8700   -5.4240   60.9070 C.ar  285  TRP285      0.0810
    109  CE3        5.4750   -5.0760   63.2230 C.ar  285  TRP285      0.0012
    110  CZ2        3.5530   -5.0440   61.1500 C.ar  285  TRP285      0.0191
    111  CZ3        4.1700   -4.6920   63.4580 C.ar  285  TRP285      0.0001
    112  CH2        3.2210   -4.6820   62.4250 C.ar  285  TRP285      0.0015
    113  N         10.7590   -5.7330   60.0320 N.am  286  TYR286     -0.1960
    114  CA        11.4810   -5.6130   58.7720 C.3   286  TYR286      0.1771
    115  C         10.6510   -6.1180   57.6060 C.2   286  TYR286      0.2619
    116  O          9.9510   -7.1290   57.7170 O.2   286  TYR286     -0.2715
    117  CB        12.7690   -6.4180   58.8420 C.3   286  TYR286      0.0574
    118  CG        14.0120   -5.6580   59.2240 C.ar  286  TYR286     -0.0198
    119  CD1       14.7270   -6.0040   60.3580 C.ar  286  TYR286     -0.0009
    120  CD2       14.5080   -4.6340   58.4230 C.ar  286  TYR286     -0.0009
    121  CE1       15.8830   -5.3530   60.7030 C.ar  286  TYR286      0.0417
    122  CE2       15.6810   -3.9660   58.7640 C.ar  286  TYR286      0.0417
    123  CZ        16.3620   -4.3360   59.9200 C.ar  286  TYR286      0.1957
    124  OH        17.5250   -3.6850   60.2750 O.3   286  TYR286     -0.2866
    125  N         10.7480   -5.4130   56.4790 N.am  287  MET287     -0.1977
    126  CA        10.5040   -6.0310   55.1850 C.3   287  MET287      0.1605
    127  C         11.7790   -6.7570   54.7860 C.2   287  MET287      0.2287
    128  O         12.8870   -6.2530   55.0040 O.2   287  MET287     -0.2864
    129  CB        10.1160   -4.9850   54.1280 C.3   287  MET287      0.0413
    130  CG         9.8020   -5.5560   52.7150 C.3   287  MET287      0.0598
    131  SD         8.8910   -4.3500   51.7240 S.3   287  MET287     -0.1393
    132  CE        10.2290   -3.2430   51.2980 C.3   287  MET287      0.0692
    133  N         14.9330   -5.0880   52.9690 N.3   290  GLU290     -0.1245
    134  CA        15.8280   -4.1850   53.6870 C.3   290  GLU290      0.1567
    135  C         17.0910   -4.9060   54.1390 C.2   290  GLU290      0.2260
    136  O         18.1910   -4.3450   54.0740 O.2   290  GLU290     -0.2867
    137  CB        15.1220   -3.5600   54.8890 C.3   290  GLU290      0.0388
    138  CG        13.8410   -2.8120   54.5570 C.3   290  GLU290      0.1160
    139  CD        13.1360   -2.2800   55.8190 C.2   290  GLU290      0.3649
    140  OE1       13.5480   -1.2030   56.2960 O.co2 290  GLU290     -0.2457
    141  OE2       12.1950   -2.9340   56.3170 O.co2 290  GLU290     -0.2457
    142  N         19.4830   -4.7310   50.5700 N.3   294  ARG294     -0.1245
    143  CA        20.3170   -3.5660   50.8560 C.3   294  ARG294      0.1563
    144  C         21.4460   -3.8960   51.8380 C.2   294  ARG294      0.2260
    145  O         22.6220   -3.6550   51.5420 O.2   294  ARG294     -0.2867
    146  CB        19.4420   -2.4050   51.3730 C.3   294  ARG294      0.0307
    147  CG        18.1950   -2.0950   50.4990 C.3   294  ARG294      0.0489
    148  CD        18.5630   -1.7530   49.0060 C.3   294  ARG294      0.2205
    149  NE        19.6120   -0.7420   48.9530 N.pl3 294  ARG294     -0.0865
    150  CZ        19.4350    0.5330   49.2970 C.cat 294  ARG294      0.5346
    151  NH1       18.2400    0.9780   49.6830 N.pl3 294  ARG294      0.1354
    152  NH2       20.4600    1.3680   49.2570 N.pl3 294  ARG294      0.1354
    153  N         27.8790   -2.1960   51.4400 N.3   301  ARG301     -0.1245
    154  CA        27.4860   -2.8230   52.7030 C.3   301  ARG301      0.1563
    155  C         28.1850   -4.1750   52.8570 C.2   301  ARG301      0.2260
    156  O         29.3740   -4.2890   52.5460 O.2   301  ARG301     -0.2867
    157  CB        25.9640   -2.9590   52.7860 C.3   301  ARG301      0.0307
    158  CG        25.2080   -1.6290   52.6740 C.3   301  ARG301      0.0489
    159  CD        25.4130   -0.7090   53.8770 C.3   301  ARG301      0.2205
    160  NE        25.0240   -1.3400   55.1390 N.pl3 301  ARG301     -0.0865
    161  CZ        23.7670   -1.4900   55.5560 C.cat 301  ARG301      0.5346
    162  NH1       22.7580   -1.0590   54.8150 N.pl3 301  ARG301      0.1354
    163  NH2       23.5150   -2.0720   56.7240 N.pl3 301  ARG301      0.1354
    164  N         10.8220    5.5830   46.7520 N.3   376  TRP376     -0.1241
    165  CA        11.1110    4.8320   47.9600 C.3   376  TRP376      0.1605
    166  C         10.1490    3.6720   48.2040 C.2   376  TRP376      0.2264
    167  O         10.5490    2.6690   48.8100 O.2   376  TRP376     -0.2867
    168  CB        11.1110    5.7900   49.1710 C.3   376  TRP376      0.0550
    169  CG        12.4190    6.5380   49.3080 C.ar  376  TRP376      0.0003
    170  CD1       12.9550    7.4480   48.4220 C.ar  376  TRP376      0.0946
    171  CD2       13.3720    6.4100   50.3670 C.ar  376  TRP376      0.0152
    172  NE1       14.1740    7.8900   48.8760 N.ar  376  TRP376     -0.2442
    173  CE2       14.4510    7.2720   50.0690 C.ar  376  TRP376      0.0810
    174  CE3       13.4170    5.6540   51.5430 C.ar  376  TRP376      0.0012
    175  CZ2       15.5590    7.3930   50.9050 C.ar  376  TRP376      0.0191
    176  CZ3       14.5130    5.7860   52.3740 C.ar  376  TRP376      0.0001
    177  CH2       15.5740    6.6460   52.0440 C.ar  376  TRP376      0.0015
    178  N         14.5380   14.6480   58.5900 N.3   404  TYR404     -0.1241
    179  CA        15.9520   14.4040   58.8170 C.3   404  TYR404      0.1605
    180  C         16.5500   15.5530   59.6220 C.2   404  TYR404      0.2264
    181  O         16.0400   16.6780   59.6270 O.2   404  TYR404     -0.2867
    182  CB        16.6970   14.2500   57.4900 C.3   404  TYR404      0.0534
    183  CG        16.5440   12.8750   56.8890 C.ar  404  TYR404     -0.0201
    184  CD1       15.7120   12.6590   55.8040 C.ar  404  TYR404     -0.0009
    185  CD2       17.2090   11.7800   57.4360 C.ar  404  TYR404     -0.0009
    186  CE1       15.5680   11.4000   55.2490 C.ar  404  TYR404      0.0417
    187  CE2       17.0650   10.5140   56.8960 C.ar  404  TYR404      0.0417
    188  CZ        16.2460   10.3320   55.7980 C.ar  404  TYR404      0.1957
    189  OH        16.1030    9.0770   55.2510 O.3   404  TYR404     -0.2866
@<TRIPOS>BOND
     1   164   165    1
     2     1     2    1
     3   165   166    1
     4   165   168    1
     5   166   167    2
     6   170   172   ar
     7   170   169   ar
     8     2     5    1
     9     2     3    1
    10   172   173   ar
    11   149   148    1
    12   149   150    2
    13   148   147    1
    14     5     6    1
    15   168   169    1
    16   152   150    1
    17   150   151    1
    18   169   171   ar
    19     3     9   am
    20     3     4    2
    21     7     6    1
    22     7     8    1
    23   173   171   ar
    24   173   175   ar
    25     9    10    1
    26   171   174   ar
    27   147   146    1
    28   142   143    1
    29    12    11    2
    30    11    10    1
    31   143   146    1
    32   143   144    1
    33   175   177   ar
    34    10    13    1
    35   132   131    1
    36   153   154    1
    37   145   144    2
    38   174   176   ar
    39   131   130    1
    40   177   176   ar
    41    13    14    1
    42   156   155    2
    43   158   157    1
    44   158   159    1
    45    14    15    1
    46    14    16    1
    47   154   157    1
    48   154   155    1
    49   130   129    1
    50   133   134    1
    51    17    18    1
    52    20    19    2
    53    19    18    1
    54   134   135    1
    55   134   137    1
    56   159   160    1
    57   136   135    2
    58   129   126    1
    59    18    21    1
    60   138   137    1
    61   138   139    1
    62   127   128    2
    63   127   126    1
    64   162   161    1
    65   160   161    2
    66   126   125    1
    67   186   188   ar
    68   186   184   ar
    69   189   188    1
    70   161   163    1
    71    21    22    1
    72   188   187   ar
    73   184   183   ar
    74   139   140   ar
    75   139   141   ar
    76   125   115   am
    77    43    44    1
    78    47    44    1
    79    44    45    1
    80   183   185   ar
    81   183   182    1
    82   187   185   ar
    83   182   179    1
    84   115   116    2
    85   115   114    1
    86    45    46    2
    87   120   122   ar
    88   120   118   ar
    89    42    40    1
    90   178   179    1
    91   122   123   ar
    92   114   117    1
    93   114   113    1
    94   179   180    1
    95    77    76    1
    96   117   118    1
    97   118   119   ar
    98    76    75    1
    99    41    40    1
   100   180   181    2
   101   102   101    2
   102    40    39    2
   103   107   105   ar
   104   107   108   ar
   105   123   124    1
   106   123   121   ar
   107   105   104   ar
   108    31    29   am
   109   113   101   am
   110   119   121   ar
   111   101   100    1
   112    39    38    1
   113    75    74    1
   114   108   110   ar
   115   108   106   ar
   116   110   112   ar
   117    61    59    1
   118   104   106   ar
   119   104   103    1
   120    29    30    2
   121    29    28    1
   122    69    67   am
   123    52    53    1
   124    52    49    1
   125   100   103    1
   126   100    99    1
   127    53    54    1
   128    68    67    2
   129   106   109   ar
   130    60    59    1
   131    88    86   ar
   132    88    87   ar
   133    38    37    1
   134    74    71    1
   135    86    84   ar
   136    99    97   am
   137    67    66    1
   138    28    27    1
   139    59    56    1
   140   112   111   ar
   141    71    70    1
   142    71    72    1
   143    49    48    1
   144    49    50    1
   145    54    48    1
   146    65    64    2
   147    87    85   ar
   148   109   111   ar
   149    37    36    1
   150    84    83   ar
   151    97    96    1
   152    97    98    2
   153    66    63    1
   154    96    95    1
   155    56    55    1
   156    56    57    1
   157    64    70   am
   158    64    63    1
   159    27    24    1
   160    50    51    2
   161    72    73    2
   162    36    33    1
   163    95    91   am
   164    23    24    1
   165    85    83   ar
   166    63    62    1
   167    33    34    1
   168    33    32    1
   169    83    82    1
   170    24    25    1
   171    34    35    2
   172    57    58    2
   173    91    92    2
   174    91    90    1
   175    81    80    2
   176    90    89    1
   177    90    93    1
   178    82    79    1
   179    80    89   am
   180    80    79    1
   181    25    26    2
   182    79    78    1
   183    93    94    1
