@<TRIPOS>MOLECULE
tmp/6nh0B03.pdb
 173 170 0 0 0
SMALL
GASTEIGER

@<TRIPOS>ATOM
      1  N         18.0760   12.3750   47.5940 N.3    38  MET38      -0.1230
      2  CA        17.9280   11.6960   48.8860 C.3    38  MET38       0.1702
      3  C         17.5080   12.6710   49.9900 C.2    38  MET38       0.2592
      4  O         16.4920   12.4600   50.6590 O.2    38  MET38      -0.2718
      5  CB        19.2300   10.9760   49.2520 C.3    38  MET38       0.0401
      6  CG        19.2090   10.2630   50.6070 C.3    38  MET38       0.0596
      7  SD        18.9010    8.4870   50.4730 S.3    38  MET38      -0.1393
      8  CE        20.2910    7.9610   49.4820 C.3    38  MET38       0.0692
      9  N         18.2630   13.7580   50.1840 N.am   39  LEU39      -0.1980
     10  CA        17.9480   14.7720   51.1940 C.3    39  LEU39       0.1596
     11  C         17.7320   16.1200   50.5180 C.2    39  LEU39       0.2287
     12  O         18.6900   16.8800   50.3130 O.2    39  LEU39      -0.2864
     13  CB        19.0600   14.8810   52.2360 C.3    39  LEU39       0.0297
     14  CG        19.8500   13.6330   52.6360 C.3    39  LEU39       0.0022
     15  CD1       21.0460   14.0290   53.4950 C.3    39  LEU39       0.0001
     16  CD2       18.9800   12.6180   53.3680 C.3    39  LEU39       0.0001
     17  N         22.2080    6.0200   64.6490 N.3   170  SER170     -0.1202
     18  CA        21.1910    6.1820   63.6150 C.3   170  SER170      0.2020
     19  C         20.0430    5.1940   63.7910 C.2   170  SER170      0.2618
     20  O         18.8980    5.5220   63.4550 O.2   170  SER170     -0.2717
     21  CB        21.8150    6.0210   62.2200 C.3   170  SER170      0.2103
     22  OG        22.4490    4.7590   62.0890 O.3   170  SER170     -0.2182
     23  N         20.3400    3.9710   64.2500 N.am  171  GLN171     -0.1979
     24  CA        19.3440    3.0080   64.6940 C.3   171  GLN171      0.1601
     25  C         19.7390    2.4980   66.0800 C.2   171  GLN171      0.2287
     26  O         20.9180    2.4890   66.4350 O.2   171  GLN171     -0.2864
     27  CB        19.2050    1.8180   63.7080 C.3   171  GLN171      0.0394
     28  CG        18.8040    2.2010   62.2750 C.3   171  GLN171      0.0908
     29  CD        18.7980    1.0100   61.2940 C.2   171  GLN171      0.2608
     30  OE1       18.7520   -0.1540   61.6990 O.2   171  GLN171     -0.2717
     31  NE2       18.8390    1.3110   59.9970 N.am  171  GLN171     -0.0878
     32  N         22.4940   -1.8580   65.7090 N.3   174  ARG174     -0.1245
     33  CA        23.2840   -1.8290   64.4810 C.3   174  ARG174      0.1563
     34  C         24.6340   -2.4850   64.7400 C.2   174  ARG174      0.2260
     35  O         25.1430   -2.4480   65.8620 O.2   174  ARG174     -0.2867
     36  CB        23.5080   -0.3950   63.9770 C.3   174  ARG174      0.0307
     37  CG        22.3280    0.1700   63.2170 C.3   174  ARG174      0.0489
     38  CD        22.7470    1.1250   62.1440 C.3   174  ARG174      0.2205
     39  NE        22.8210    0.4690   60.8470 N.pl3 174  ARG174     -0.0865
     40  CZ        22.9520    1.1220   59.6980 C.cat 174  ARG174      0.5346
     41  NH1       23.0210    2.4460   59.6940 N.pl3 174  ARG174      0.1354
     42  NH2       23.0180    0.4550   58.5550 N.pl3 174  ARG174      0.1354
     43  N         14.1140   -3.3700   63.6960 N.3   258  PRO258     -0.2116
     44  CA        14.5220   -2.1160   63.0410 C.3   258  PRO258      0.1372
     45  C         13.9620   -0.9390   63.8290 C.2   258  PRO258      0.2244
     46  O         12.7480   -0.8420   64.0250 O.2   258  PRO258     -0.2868
     47  CB        13.8860   -2.2220   61.6420 C.3   258  PRO258      0.0268
     48  CG        12.5930   -3.0150   61.8880 C.3   258  PRO258      0.0207
     49  CD        12.9170   -3.9660   63.0690 C.3   258  PRO258      0.0892
     50  N         14.5820    3.2190   64.0920 N.3   260  VAL260     -0.1245
     51  CA        15.2510    4.4220   63.6060 C.3   260  VAL260      0.1561
     52  C         15.3300    5.4520   64.7230 C.2   260  VAL260      0.2260
     53  O         14.3140    5.7960   65.3370 O.2   260  VAL260     -0.2867
     54  CB        14.5100    4.9920   62.3990 C.3   260  VAL260      0.0252
     55  CG1       14.9850    6.4210   62.1200 C.3   260  VAL260      0.0019
     56  CG2       14.7050    4.0300   61.1920 C.3   260  VAL260      0.0019
     57  N         17.5560    8.5800   64.6030 N.3   262  ASN262     -0.1225
     58  CA        18.1990    9.8590   64.3240 C.3   262  ASN262      0.1785
     59  C         17.2680   10.8710   63.6770 C.2   262  ASN262      0.2597
     60  O         17.7380   11.9180   63.2170 O.2   262  ASN262     -0.2718
     61  CB        19.4380    9.6750   63.4420 C.3   262  ASN262      0.1169
     62  CG        19.1360    8.9730   62.1610 C.2   262  ASN262      0.2627
     63  OD1       17.9810    8.7240   61.8300 O.2   262  ASN262     -0.2716
     64  ND2       20.1780    8.6480   61.4170 N.am  262  ASN262     -0.0877
     65  N         15.9710   10.6120   63.6310 N.am  263  MET263     -0.1979
     66  CA        15.0950   11.5530   62.9590 C.3   263  MET263      0.1605
     67  C         14.4350   12.4860   63.9590 C.2   263  MET263      0.2287
     68  O         14.4740   12.2690   65.1700 O.2   263  MET263     -0.2864
     69  CB        14.0730   10.8140   62.0940 C.3   263  MET263      0.0413
     70  CG        14.7600   10.2750   60.7870 C.3   263  MET263      0.0598
     71  SD        13.5360    9.5920   59.6960 S.3   263  MET263     -0.1393
     72  CE        13.0520   11.0640   58.7820 C.3   263  MET263      0.0692
     73  N         11.8840    5.1970   67.0250 N.3   277  PHE277     -0.1227
     74  CA        10.6790    4.4540   66.6990 C.3   277  PHE277      0.1736
     75  C         11.0810    3.1490   66.0240 C.2   277  PHE277      0.2596
     76  O         12.1760    3.0210   65.4900 O.2   277  PHE277     -0.2718
     77  CB         9.7260    5.2830   65.8310 C.3   277  PHE277      0.0547
     78  CG        10.3490    5.8140   64.5460 C.ar  277  PHE277     -0.0202
     79  CD1       10.4890    4.9930   63.4260 C.ar  277  PHE277     -0.0042
     80  CD2       10.7570    7.1470   64.4470 C.ar  277  PHE277     -0.0042
     81  CE1       11.0250    5.4830   62.2300 C.ar  277  PHE277     -0.0003
     82  CE2       11.3030    7.6350   63.2500 C.ar  277  PHE277     -0.0003
     83  CZ        11.4280    6.7880   62.1350 C.ar  277  PHE277     -0.0000
     84  N         10.2120    2.1510   66.1210 N.am  278  SER278     -0.1938
     85  CA        10.5990    0.8120   65.6940 C.3   278  SER278      0.2055
     86  C          9.3800    0.1160   65.1390 C.2   278  SER278      0.2644
     87  O          8.2530    0.4070   65.5300 O.2   278  SER278     -0.2714
     88  CB        11.2040   -0.0470   66.8260 C.3   278  SER278      0.2130
     89  OG        10.2600   -0.2350   67.8780 O.3   278  SER278     -0.2179
     90  N          9.6160   -0.7960   64.1940 N.am  279  GLY279     -0.1939
     91  CA         8.5450   -1.6100   63.6720 C.3   279  GLY279      0.2014
     92  C          8.9980   -3.0450   63.4990 C.2   279  GLY279      0.2639
     93  O          9.5400   -3.6550   64.4290 O.2   279  GLY279     -0.2714
     94  N          8.7860   -3.5970   62.3090 N.am  280  TRP280     -0.1959
     95  CA         9.3830   -4.8690   61.9430 C.3   280  TRP280      0.1771
     96  C          9.8750   -4.7690   60.4980 C.2   280  TRP280      0.2620
     97  O          9.4960   -3.8600   59.7560 O.2   280  TRP280     -0.2715
     98  CB         8.4040   -6.0350   62.1230 C.3   280  TRP280      0.0590
     99  CG         7.0850   -5.8690   61.4440 C.ar  280  TRP280      0.0006
    100  CD1        6.7970   -6.1110   60.1160 C.ar  280  TRP280      0.0946
    101  CD2        5.8570   -5.4680   62.0520 C.ar  280  TRP280      0.0152
    102  NE1        5.4670   -5.8680   59.8740 N.ar  280  TRP280     -0.2442
    103  CE2        4.8700   -5.4680   61.0450 C.ar  280  TRP280      0.0810
    104  CE3        5.4940   -5.0980   63.3570 C.ar  280  TRP280      0.0012
    105  CZ2        3.5470   -5.1180   61.3040 C.ar  280  TRP280      0.0191
    106  CZ3        4.1800   -4.7470   63.6110 C.ar  280  TRP280      0.0001
    107  CH2        3.2200   -4.7690   62.5940 C.ar  280  TRP280      0.0015
    108  N         10.7420   -5.6980   60.1200 N.am  281  TYR281     -0.1960
    109  CA        11.4820   -5.5810   58.8660 C.3   281  TYR281      0.1771
    110  C         10.6520   -6.0710   57.6900 C.2   281  TYR281      0.2619
    111  O          9.9070   -7.0490   57.8010 O.2   281  TYR281     -0.2715
    112  CB        12.7670   -6.4010   58.9220 C.3   281  TYR281      0.0574
    113  CG        14.0310   -5.6580   59.2770 C.ar  281  TYR281     -0.0198
    114  CD1       14.7390   -5.9760   60.4340 C.ar  281  TYR281     -0.0009
    115  CD2       14.5300   -4.6530   58.4570 C.ar  281  TYR281     -0.0009
    116  CE1       15.9000   -5.3130   60.7570 C.ar  281  TYR281      0.0417
    117  CE2       15.7050   -3.9960   58.7620 C.ar  281  TYR281      0.0417
    118  CZ        16.3840   -4.3350   59.9300 C.ar  281  TYR281      0.1957
    119  OH        17.5570   -3.6990   60.2630 O.3   281  TYR281     -0.2866
    120  N         10.8010   -5.3930   56.5520 N.am  282  MET282     -0.1977
    121  CA        10.5310   -6.0070   55.2600 C.3   282  MET282      0.1605
    122  C         11.8000   -6.7290   54.8220 C.2   282  MET282      0.2287
    123  O         12.9050   -6.1900   54.9410 O.2   282  MET282     -0.2864
    124  CB        10.1020   -4.9510   54.2220 C.3   282  MET282      0.0413
    125  CG         9.7250   -5.5230   52.8440 C.3   282  MET282      0.0598
    126  SD         8.8750   -4.3040   51.7820 S.3   282  MET282     -0.1393
    127  CE        10.2200   -3.1810   51.4220 C.3   282  MET282      0.0692
    128  N         14.9280   -5.2100   53.1060 N.3   285  GLU285     -0.1245
    129  CA        15.8230   -4.2760   53.7810 C.3   285  GLU285      0.1567
    130  C         17.1130   -4.9720   54.1910 C.2   285  GLU285      0.2260
    131  O         18.2060   -4.4130   54.0340 O.2   285  GLU285     -0.2867
    132  CB        15.1340   -3.6410   54.9840 C.3   285  GLU285      0.0388
    133  CG        13.8740   -2.8630   54.6510 C.3   285  GLU285      0.1160
    134  CD        13.1960   -2.2990   55.8950 C.2   285  GLU285      0.3649
    135  OE1       13.6930   -1.2860   56.4210 O.co2 285  GLU285     -0.2457
    136  OE2       12.1710   -2.8570   56.3370 O.co2 285  GLU285     -0.2457
    137  N         19.4040   -4.8020   50.5920 N.3   289  ARG289     -0.1245
    138  CA        20.2450   -3.6400   50.8620 C.3   289  ARG289      0.1563
    139  C         21.3820   -3.9850   51.8310 C.2   289  ARG289      0.2260
    140  O         22.5620   -3.8340   51.4880 O.2   289  ARG289     -0.2867
    141  CB        19.3780   -2.4780   51.3810 C.3   289  ARG289      0.0307
    142  CG        18.1400   -2.1550   50.4820 C.3   289  ARG289      0.0489
    143  CD        18.5400   -1.7600   49.0450 C.3   289  ARG289      0.2205
    144  NE        19.5930   -0.7510   49.0540 N.pl3 289  ARG289     -0.0865
    145  CZ        19.4160    0.5290   49.3740 C.cat 289  ARG289      0.5346
    146  NH1       18.2070    0.9880   49.7000 N.pl3 289  ARG289      0.1354
    147  NH2       20.4620    1.3490   49.3780 N.pl3 289  ARG289      0.1354
    148  N         10.8970    5.5380   46.8460 N.3   371  TRP371     -0.1241
    149  CA        11.1720    4.7820   48.0640 C.3   371  TRP371      0.1605
    150  C         10.1980    3.6390   48.3070 C.2   371  TRP371      0.2264
    151  O         10.5940    2.6120   48.8780 O.2   371  TRP371     -0.2867
    152  CB        11.1580    5.7370   49.2780 C.3   371  TRP371      0.0550
    153  CG        12.4570    6.4940   49.4440 C.ar  371  TRP371      0.0003
    154  CD1       13.0170    7.4140   48.5780 C.ar  371  TRP371      0.0946
    155  CD2       13.3560    6.3900   50.5490 C.ar  371  TRP371      0.0152
    156  NE1       14.2060    7.8810   49.0980 N.ar  371  TRP371     -0.2442
    157  CE2       14.4360    7.2610   50.3000 C.ar  371  TRP371      0.0810
    158  CE3       13.3450    5.6480   51.7360 C.ar  371  TRP371      0.0012
    159  CZ2       15.4920    7.4030   51.1950 C.ar  371  TRP371      0.0191
    160  CZ3       14.3930    5.7960   52.6210 C.ar  371  TRP371      0.0001
    161  CH2       15.4470    6.6690   52.3430 C.ar  371  TRP371      0.0015
    162  N         14.5700   14.7070   58.6480 N.3   399  TYR399     -0.1241
    163  CA        15.9840   14.5160   58.8780 C.3   399  TYR399      0.1605
    164  C         16.5400   15.6810   59.6790 C.2   399  TYR399      0.2264
    165  O         15.9930   16.7880   59.6900 O.2   399  TYR399     -0.2867
    166  CB        16.7370   14.4010   57.5520 C.3   399  TYR399      0.0534
    167  CG        16.5830   13.0510   56.9030 C.ar  399  TYR399     -0.0201
    168  CD1       15.6790   12.8570   55.8660 C.ar  399  TYR399     -0.0009
    169  CD2       17.3280   11.9650   57.3440 C.ar  399  TYR399     -0.0009
    170  CE1       15.5390   11.6150   55.2670 C.ar  399  TYR399      0.0417
    171  CE2       17.1920   10.7230   56.7590 C.ar  399  TYR399      0.0417
    172  CZ        16.3010   10.5540   55.7180 C.ar  399  TYR399      0.1957
    173  OH        16.1820    9.3160   55.1290 O.3   399  TYR399     -0.2866
@<TRIPOS>BOND
     1   148   149    1
     2     1     2    1
     3   149   150    1
     4   149   152    1
     5   150   151    2
     6   154   156   ar
     7   154   153   ar
     8     2     5    1
     9     2     3    1
    10   143   144    1
    11   143   142    1
    12   144   145    2
    13   156   157   ar
    14     5     6    1
    15   152   153    1
    16   145   147    1
    17   145   146    1
    18   153   155   ar
    19     8     7    1
    20     3     9   am
    21     3     4    2
    22     9    10    1
    23   157   155   ar
    24   157   159   ar
    25    12    11    2
    26     7     6    1
    27   142   141    1
    28    11    10    1
    29   155   158   ar
    30   137   138    1
    31   138   141    1
    32   138   139    1
    33    10    13    1
    34   159   161   ar
    35   127   126    1
    36   140   139    2
    37   158   160   ar
    38   126   125    1
    39    13    14    1
    40   161   160   ar
    41    14    16    1
    42    14    15    1
    43   125   124    1
    44   128   129    1
    45   129   130    1
    46   129   132    1
    47   131   130    2
    48   124   121    1
    49   133   132    1
    50   133   134    1
    51   122   123    2
    52   122   121    1
    53   173   172    1
    54   121   120    1
    55   170   172   ar
    56   170   168   ar
    57   172   171   ar
    58   168   167   ar
    59   134   136   ar
    60   134   135   ar
    61   120   110   am
    62   171   169   ar
    63   167   169   ar
    64   167   166    1
    65   166   163    1
    66   110   111    2
    67   110   109    1
    68   115   117   ar
    69   115   113   ar
    70    42    40    1
    71   162   163    1
    72   117   118   ar
    73    72    71    1
    74   109   112    1
    75   109   108    1
    76   163   164    1
    77   112   113    1
    78   113   114   ar
    79   164   165    2
    80    41    40    1
    81    71    70    1
    82    40    39    2
    83    97    96    2
    84   102   100   ar
    85   102   103   ar
    86   118   119    1
    87   118   116   ar
    88    31    29   am
    89   100    99   ar
    90   108    96   am
    91   114   116   ar
    92    96    95    1
    93    70    69    1
    94    39    38    1
    95   103   105   ar
    96   103   101   ar
    97    56    54    1
    98    29    30    2
    99    29    28    1
   100   105   107   ar
   101    64    62   am
   102    99   101   ar
   103    99    98    1
   104    47    48    1
   105    47    44    1
   106    63    62    2
   107    48    49    1
   108    95    98    1
   109    95    94    1
   110   101   104   ar
   111    22    21    1
   112    69    66    1
   113    55    54    1
   114    83    81   ar
   115    83    82   ar
   116    38    37    1
   117    62    61    1
   118    21    18    1
   119    81    79   ar
   120    28    27    1
   121    94    92   am
   122    54    51    1
   123   107   106   ar
   124    66    65    1
   125    66    67    1
   126    44    43    1
   127    44    45    1
   128    49    43    1
   129    60    59    2
   130    37    36    1
   131    82    80   ar
   132   104   106   ar
   133    79    78   ar
   134    61    58    1
   135    20    19    2
   136    92    91    1
   137    92    93    2
   138    51    50    1
   139    51    52    1
   140    18    19    1
   141    18    17    1
   142    65    59   am
   143    91    90    1
   144    59    58    1
   145    27    24    1
   146    19    23   am
   147    45    46    2
   148    67    68    2
   149    36    33    1
   150    90    86   am
   151    23    24    1
   152    58    57    1
   153    80    78   ar
   154    33    34    1
   155    33    32    1
   156    78    77    1
   157    24    25    1
   158    52    53    2
   159    34    35    2
   160    86    87    2
   161    86    85    1
   162    76    75    2
   163    85    84    1
   164    85    88    1
   165    77    74    1
   166    75    84   am
   167    75    74    1
   168    25    26    2
   169    74    73    1
   170    88    89    1
