@<TRIPOS>MOLECULE
tmp/6nh2D01.pdb
 105 100 0 0 0
SMALL
GASTEIGER

@<TRIPOS>ATOM
      1  N        102.2400  -26.4740 -215.6950 N.3    36  SER36      -0.1217
      2  CA       103.3220  -25.6940 -215.1110 C.3    36  SER36       0.1889
      3  C        104.5830  -25.6670 -215.9690 C.2    36  SER36       0.2288
      4  O        105.5600  -25.0250 -215.5720 O.2    36  SER36      -0.2866
      5  CB       103.6670  -26.2200 -213.7120 C.3    36  SER36       0.2089
      6  OG       104.4040  -27.4220 -213.7870 O.3    36  SER36      -0.2183
      7  N        107.1620  -24.4250 -218.6350 N.3    38  VAL38      -0.1231
      8  CA       107.4100  -23.1060 -219.2140 C.3    38  VAL38       0.1692
      9  C        107.2460  -23.1380 -220.7320 C.2    38  VAL38       0.2592
     10  O        106.6410  -22.2330 -221.3200 O.2    38  VAL38      -0.2718
     11  CB       108.8020  -22.5800 -218.8190 C.3    38  VAL38       0.0266
     12  CG1      109.0840  -21.2920 -219.5680 C.3    38  VAL38       0.0020
     13  CG2      108.8940  -22.3370 -217.2880 C.3    38  VAL38       0.0020
     14  N        107.7900  -24.1620 -221.3890 N.am   39  PHE39      -0.1976
     15  CA       107.6780  -24.3270 -222.8400 C.3    39  PHE39       0.1639
     16  C        106.9300  -25.6110 -223.1680 C.2    39  PHE39       0.2290
     17  O        107.4910  -26.7110 -223.0290 O.2    39  PHE39      -0.2864
     18  CB       109.0600  -24.3350 -223.5050 C.3    39  PHE39       0.0560
     19  CG       109.8120  -23.0480 -223.3530 C.ar   39  PHE39      -0.0200
     20  CD1      109.4540  -21.9350 -224.0970 C.ar   39  PHE39      -0.0042
     21  CD2      110.8700  -22.9400 -222.4540 C.ar   39  PHE39      -0.0042
     22  CE1      110.1320  -20.7320 -223.9420 C.ar   39  PHE39      -0.0003
     23  CE2      111.5570  -21.7330 -222.3000 C.ar   39  PHE39      -0.0003
     24  CZ       111.1830  -20.6370 -223.0420 C.ar   39  PHE39      -0.0000
     25  N        120.9050  -13.9600 -216.7430 N.3   188  ALA188     -0.1245
     26  CA       119.9570  -14.3580 -217.7670 C.3   188  ALA188      0.1562
     27  C        120.4800  -14.0620 -219.1650 C.2   188  ALA188      0.2260
     28  O        120.0020  -14.6580 -220.1330 O.2   188  ALA188     -0.2867
     29  CB       118.6160  -13.6620 -217.5290 C.3   188  ALA188      0.0290
     30  N        124.3860  -15.7380 -222.6630 N.3   191  GLU191     -0.1245
     31  CA       124.5010  -16.1970 -224.0460 C.3   191  GLU191      0.1567
     32  C        124.4290  -15.0310 -225.0200 C.2   191  GLU191      0.2260
     33  O        125.2680  -14.9110 -225.9170 O.2   191  GLU191     -0.2867
     34  CB       123.4160  -17.2310 -224.3600 C.3   191  GLU191      0.0388
     35  CG       123.5520  -17.8250 -225.7590 C.3   191  GLU191      0.1160
     36  CD       122.7710  -19.1200 -225.9450 C.2   191  GLU191      0.3649
     37  OE1      121.6260  -19.2080 -225.4500 O.co2 191  GLU191     -0.2457
     38  OE2      123.3120  -20.0530 -226.5880 O.co2 191  GLU191     -0.2457
     39  N        111.5830  -11.0740 -209.1930 N.3   287  ARG287     -0.1245
     40  CA       112.2390  -11.8980 -210.2110 C.3   287  ARG287      0.1563
     41  C        113.6490  -11.4060 -210.5250 C.2   287  ARG287      0.2260
     42  O        114.6230  -12.1080 -210.2540 O.2   287  ARG287     -0.2867
     43  CB       111.4180  -11.9650 -211.5210 C.3   287  ARG287      0.0307
     44  CG       112.1440  -12.7460 -212.6670 C.3   287  ARG287      0.0489
     45  CD       111.7190  -12.2530 -214.0750 C.3   287  ARG287      0.2205
     46  NE       110.2870  -12.0640 -214.0910 N.pl3 287  ARG287     -0.0865
     47  CZ       109.6590  -11.0760 -214.7030 C.cat 287  ARG287      0.5346
     48  NH1      110.3270  -10.1720 -215.4060 N.pl3 287  ARG287      0.1354
     49  NH2      108.3450  -11.0130 -214.6150 N.pl3 287  ARG287      0.1354
     50  N        115.7480  -13.4280 -207.5400 N.3   291  ASP291     -0.1239
     51  CA       115.9200  -14.8010 -207.9950 C.3   291  ASP291      0.1674
     52  C        117.3720  -15.2070 -207.7490 C.2   291  ASP291      0.2266
     53  O        118.2890  -14.4120 -207.9890 O.2   291  ASP291     -0.2867
     54  CB       115.5900  -14.9500 -209.4910 C.3   291  ASP291      0.1410
     55  CG       114.1200  -15.3830 -209.7970 C.2   291  ASP291      0.3668
     56  OD1      113.3430  -15.8340 -208.9410 O.co2 291  ASP291     -0.2456
     57  OD2      113.7110  -15.2910 -210.9700 O.co2 291  ASP291     -0.2456
     58  N        119.2480  -17.1900 -209.3670 N.3   293  HIS293     -0.1226
     59  CA       119.9450  -17.2740 -210.6420 C.3   293  HIS293      0.1752
     60  C        119.9110  -15.9520 -211.4010 C.2   293  HIS293      0.2595
     61  O        120.2980  -15.8980 -212.5710 O.2   293  HIS293     -0.2718
     62  CB       119.3550  -18.4060 -211.4930 C.3   293  HIS293      0.0759
     63  CG       117.8730  -18.3100 -211.7060 C.ar  293  HIS293      0.0818
     64  ND1      116.9610  -18.3560 -210.6700 N.ar  293  HIS293     -0.2268
     65  CD2      117.1440  -18.1960 -212.8420 C.ar  293  HIS293      0.1154
     66  CE1      115.7370  -18.2710 -211.1590 C.ar  293  HIS293      0.1986
     67  NE2      115.8200  -18.1660 -212.4740 N.ar  293  HIS293     -0.2212
     68  N        119.4480  -14.8900 -210.7590 N.am  294  ARG294     -0.1980
     69  CA       119.5370  -13.5700 -211.3450 C.3   294  ARG294      0.1597
     70  C        120.4820  -12.7270 -210.4860 C.2   294  ARG294      0.2287
     71  O        121.5470  -13.2080 -210.0880 O.2   294  ARG294     -0.2864
     72  CB       118.1410  -12.9810 -211.4890 C.3   294  ARG294      0.0334
     73  CG       117.1960  -13.8620 -212.3190 C.3   294  ARG294      0.0492
     74  CD       117.6330  -13.9520 -213.8000 C.3   294  ARG294      0.2205
     75  NE       117.6830  -12.6390 -214.4210 N.pl3 294  ARG294     -0.0865
     76  CZ       116.6030  -11.9760 -214.8230 C.cat 294  ARG294      0.5346
     77  NH1      115.3970  -12.5140 -214.6680 N.pl3 294  ARG294      0.1354
     78  NH2      116.7250  -10.7780 -215.3790 N.pl3 294  ARG294      0.1354
     79  N         99.5490  -20.1210 -212.9790 N.3   368  ALA368     -0.1231
     80  CA       100.9050  -20.0710 -212.4360 C.3   368  ALA368      0.1694
     81  C        101.6440  -18.7970 -212.8230 C.2   368  ALA368      0.2592
     82  O        102.6290  -18.4450 -212.1690 O.2   368  ALA368     -0.2718
     83  CB       101.7170  -21.2850 -212.8970 C.3   368  ALA368      0.0304
     84  N        101.2090  -18.1000 -213.8800 N.am  369  TRP369     -0.1976
     85  CA       101.8800  -16.8710 -214.2970 C.3   369  TRP369      0.1640
     86  C        101.1000  -15.6100 -213.9410 C.2   369  TRP369      0.2290
     87  O        101.7090  -14.5540 -213.7490 O.2   369  TRP369     -0.2864
     88  CB       102.1390  -16.9040 -215.8100 C.3   369  TRP369      0.0576
     89  CG       103.3370  -17.7300 -216.1820 C.ar  369  TRP369      0.0006
     90  CD1      103.5190  -19.0650 -215.9550 C.ar  369  TRP369      0.0946
     91  CD2      104.5220  -17.2670 -216.8220 C.ar  369  TRP369      0.0152
     92  NE1      104.7550  -19.4600 -216.4160 N.ar  369  TRP369     -0.2442
     93  CE2      105.3850  -18.3720 -216.9640 C.ar  369  TRP369      0.0810
     94  CE3      104.9410  -16.0200 -217.2960 C.ar  369  TRP369      0.0012
     95  CZ2      106.6350  -18.2680 -217.5660 C.ar  369  TRP369      0.0191
     96  CZ3      106.1810  -15.9190 -217.9010 C.ar  369  TRP369      0.0001
     97  CH2      107.0120  -17.0370 -218.0360 C.ar  369  TRP369      0.0015
     98  N        115.4750  -19.6990 -231.1540 N.3   400  ASP400     -0.1239
     99  CA       116.4870  -18.6760 -231.2720 C.3   400  ASP400      0.1674
    100  C        117.1410  -18.7510 -232.6440 C.2   400  ASP400      0.2266
    101  O        117.3640  -19.8440 -233.1670 O.2   400  ASP400     -0.2867
    102  CB       117.5360  -18.8460 -230.1840 C.3   400  ASP400      0.1410
    103  CG       117.0490  -18.3680 -228.8410 C.2   400  ASP400      0.3668
    104  OD1      116.3030  -17.3640 -228.8160 O.co2 400  ASP400     -0.2456
    105  OD2      117.4140  -18.9910 -227.8210 O.co2 400  ASP400     -0.2456
@<TRIPOS>BOND
     1   101   100    2
     2   100    99    1
     3    99    98    1
     4    99   102    1
     5   102   103    1
     6   103   104   ar
     7   103   105   ar
     8    38    36   ar
     9    36    35    1
    10    36    37   ar
    11    33    32    2
    12    35    34    1
    13    32    31    1
    14    34    31    1
    15    20    22   ar
    16    20    19   ar
    17    31    30    1
    18    22    24   ar
    19    18    19    1
    20    18    15    1
    21    19    21   ar
    22    16    17    2
    23    16    15    1
    24    24    23   ar
    25    15    14    1
    26    21    23   ar
    27    14     9   am
    28    10     9    2
    29     9     8    1
    30    28    27    2
    31    12    11    1
    32     8    11    1
    33     8     7    1
    34    27    26    1
    35    11    13    1
    36    97    96   ar
    37    97    95   ar
    38    96    94   ar
    39    26    29    1
    40    26    25    1
    41    95    93   ar
    42    94    91   ar
    43    93    91   ar
    44    93    92   ar
    45    91    89   ar
    46    92    90   ar
    47    89    90   ar
    48    89    88    1
    49     3     4    2
    50     3     2    1
    51    88    85    1
    52     1     2    1
    53    48    47    1
    54    78    76    1
    55     2     5    1
    56    76    77    1
    57    76    75    2
    58    47    49    1
    59    47    46    2
    60    75    74    1
    61    85    86    1
    62    85    84    1
    63    46    45    1
    64    45    44    1
    65    86    87    2
    66    84    81   am
    67    74    73    1
    68     6     5    1
    69    79    80    1
    70    83    80    1
    71    65    67   ar
    72    65    63   ar
    73    81    80    1
    74    81    82    2
    75    44    43    1
    76    61    60    2
    77    67    66   ar
    78    73    72    1
    79    63    62    1
    80    63    64   ar
    81    43    40    1
    82    62    59    1
    83    72    69    1
    84    60    68   am
    85    60    59    1
    86    69    68    1
    87    69    70    1
    88    66    64   ar
    89    57    55   ar
    90    59    58    1
    91    41    42    2
    92    41    40    1
    93    70    71    2
    94    40    39    1
    95    55    54    1
    96    55    56   ar
    97    54    51    1
    98    51    52    1
    99    51    50    1
   100    53    52    2
