@<TRIPOS>MOLECULE
tmp/6nh2D03.pdb
 181 178 0 0 0
SMALL
GASTEIGER

@<TRIPOS>ATOM
      1  N        107.1620  -24.4250 -218.6350 N.3    38  VAL38      -0.1231
      2  CA       107.4100  -23.1060 -219.2140 C.3    38  VAL38       0.1692
      3  C        107.2460  -23.1380 -220.7320 C.2    38  VAL38       0.2592
      4  O        106.6410  -22.2330 -221.3200 O.2    38  VAL38      -0.2718
      5  CB       108.8020  -22.5800 -218.8190 C.3    38  VAL38       0.0266
      6  CG1      109.0840  -21.2920 -219.5680 C.3    38  VAL38       0.0020
      7  CG2      108.8940  -22.3370 -217.2880 C.3    38  VAL38       0.0020
      8  N        107.7900  -24.1620 -221.3890 N.am   39  PHE39      -0.1976
      9  CA       107.6780  -24.3270 -222.8400 C.3    39  PHE39       0.1639
     10  C        106.9300  -25.6110 -223.1680 C.2    39  PHE39       0.2290
     11  O        107.4910  -26.7110 -223.0290 O.2    39  PHE39      -0.2864
     12  CB       109.0600  -24.3350 -223.5050 C.3    39  PHE39       0.0560
     13  CG       109.8120  -23.0480 -223.3530 C.ar   39  PHE39      -0.0200
     14  CD1      109.4540  -21.9350 -224.0970 C.ar   39  PHE39      -0.0042
     15  CD2      110.8700  -22.9400 -222.4540 C.ar   39  PHE39      -0.0042
     16  CE1      110.1320  -20.7320 -223.9420 C.ar   39  PHE39      -0.0003
     17  CE2      111.5570  -21.7330 -222.3000 C.ar   39  PHE39      -0.0003
     18  CZ       111.1830  -20.6370 -223.0420 C.ar   39  PHE39      -0.0000
     19  N         99.6960  -12.9880 -219.4580 N.3   106  CYS106     -0.1235
     20  CA        99.8230  -11.5480 -219.2650 C.3   106  CYS106      0.1677
     21  C         98.7630  -11.0560 -218.2930 C.2   106  CYS106      0.2270
     22  O         97.5710  -11.1840 -218.5670 O.2   106  CYS106     -0.2867
     23  CB        99.6880  -10.7860 -220.5820 C.3   106  CYS106      0.0956
     24  SG        99.8420   -8.9710 -220.3570 S.3   106  CYS106     -0.0801
     25  N        116.3430  -10.9060 -226.5090 N.3   168  SER168     -0.1202
     26  CA       115.0500  -11.3200 -225.9730 C.3   168  SER168      0.2020
     27  C        114.2180  -10.1170 -225.5530 C.2   168  SER168      0.2618
     28  O        112.9810  -10.1830 -225.5550 O.2   168  SER168     -0.2717
     29  CB       115.2500  -12.2830 -224.8000 C.3   168  SER168      0.2103
     30  OG       115.6910  -11.5690 -223.6570 O.3   168  SER168     -0.2182
     31  N        114.8740   -9.0100 -225.2310 N.am  169  GLN169     -0.1979
     32  CA       114.2040   -7.7500 -224.9620 C.3   169  GLN169      0.1601
     33  C        115.0270   -6.6310 -225.5730 C.2   169  GLN169      0.2287
     34  O        116.2390   -6.7550 -225.7230 O.2   169  GLN169     -0.2864
     35  CB       114.0340   -7.4840 -223.4580 C.3   169  GLN169      0.0394
     36  CG       113.0340   -8.3840 -222.7530 C.3   169  GLN169      0.0908
     37  CD       112.8950   -8.0230 -221.2830 C.2   169  GLN169      0.2608
     38  OE1      113.0660   -6.8590 -220.9030 O.2   169  GLN169     -0.2717
     39  NE2      112.5980   -9.0140 -220.4480 N.am  169  GLN169     -0.0878
     40  N        118.3440   -4.7280 -222.1280 N.3   172  ARG172     -0.1245
     41  CA       118.8030   -5.7880 -221.2370 C.3   172  ARG172      0.1563
     42  C        120.1990   -5.4560 -220.7560 C.2   172  ARG172      0.2260
     43  O        120.9920   -4.8480 -221.4870 O.2   172  ARG172     -0.2867
     44  CB       118.8760   -7.1680 -221.9070 C.3   172  ARG172      0.0307
     45  CG       117.5620   -7.7800 -222.3310 C.3   172  ARG172      0.0489
     46  CD       117.2500   -8.9980 -221.4870 C.3   172  ARG172      0.2205
     47  NE       116.4220   -8.6350 -220.3520 N.pl3 172  ARG172     -0.0865
     48  CZ       116.0120   -9.4910 -219.4310 C.cat 172  ARG172      0.5346
     49  NH1      116.3810  -10.7630 -219.5130 N.pl3 172  ARG172      0.1354
     50  NH2      115.2480   -9.0710 -218.4240 N.pl3 172  ARG172      0.1354
     51  N        110.0330   -2.4560 -220.3490 N.3   256  PRO256     -0.2116
     52  CA       110.0750   -3.8890 -220.6640 C.3   256  PRO256      0.1372
     53  C        109.5410   -4.1290 -222.0650 C.2   256  PRO256      0.2244
     54  O        108.3490   -3.9480 -222.3300 O.2   256  PRO256     -0.2868
     55  CB       109.1660   -4.5050 -219.5900 C.3   256  PRO256      0.0268
     56  CG       108.1400   -3.4290 -219.3180 C.3   256  PRO256      0.0207
     57  CD       108.7660   -2.0710 -219.7090 C.3   256  PRO256      0.0892
     58  N        109.5510   -6.9560 -224.9530 N.3   258  VAL258     -0.1245
     59  CA       109.8460   -8.3230 -225.3810 C.3   258  VAL258      0.1561
     60  C        110.0220   -8.3280 -226.8940 C.2   258  VAL258      0.2260
     61  O        109.1630   -7.8340 -227.6320 O.2   258  VAL258     -0.2867
     62  CB       108.7360   -9.2850 -224.9420 C.3   258  VAL258      0.0252
     63  CG1      108.8400  -10.5990 -225.6760 C.3   258  VAL258      0.0019
     64  CG2      108.7970   -9.5100 -223.4170 C.3   258  VAL258      0.0019
     65  N        111.5480  -11.2140 -228.8700 N.3   260  ASN260     -0.1225
     66  CA       111.8880  -12.4910 -229.4900 C.3   260  ASN260      0.1785
     67  C        110.6800  -13.4020 -229.7580 C.2   260  ASN260      0.2597
     68  O        110.8620  -14.5860 -230.0750 O.2   260  ASN260     -0.2718
     69  CB       112.9160  -13.2350 -228.6260 C.3   260  ASN260      0.1169
     70  CG       112.3850  -13.5780 -227.2360 C.2   260  ASN260      0.2627
     71  OD1      111.3930  -13.0140 -226.7740 O.2   260  ASN260     -0.2716
     72  ND2      113.0600  -14.4990 -226.5600 N.am  260  ASN260     -0.0877
     73  N        109.4640  -12.9060 -229.6380 N.am  261  MET261     -0.1979
     74  CA       108.3210  -13.7650 -229.8890 C.3   261  MET261      0.1605
     75  C        107.7760  -13.5370 -231.2910 C.2   261  MET261      0.2287
     76  O        108.0490  -12.5290 -231.9480 O.2   261  MET261     -0.2864
     77  CB       107.2160  -13.5300 -228.8520 C.3   261  MET261      0.0413
     78  CG       107.6590  -13.9370 -227.4330 C.3   261  MET261      0.0598
     79  SD       106.3350  -13.8500 -226.2180 S.3   261  MET261     -0.1393
     80  CE       105.3830  -15.3300 -226.5930 C.3   261  MET261      0.0692
     81  N        107.1800   -5.7140 -228.6920 N.3   275  PHE275     -0.1227
     82  CA       106.1220   -5.0090 -227.9880 C.3   275  PHE275      0.1736
     83  C        106.5990   -4.6750 -226.5830 C.2   275  PHE275      0.2596
     84  O        107.4400   -5.3700 -226.0130 O.2   275  PHE275     -0.2718
     85  CB       104.8210   -5.8420 -227.9560 C.3   275  PHE275      0.0547
     86  CG       105.0020   -7.2190 -227.4060 C.ar  275  PHE275     -0.0202
     87  CD1      104.9200   -7.4410 -226.0170 C.ar  275  PHE275     -0.0042
     88  CD2      105.2560   -8.2850 -228.2380 C.ar  275  PHE275     -0.0042
     89  CE1      105.0900   -8.6900 -225.5000 C.ar  275  PHE275     -0.0003
     90  CE2      105.4230   -9.5560 -227.7210 C.ar  275  PHE275     -0.0003
     91  CZ       105.3380   -9.7520 -226.3490 C.ar  275  PHE275     -0.0000
     92  N        106.0550   -3.6000 -226.0300 N.am  276  SER276     -0.1938
     93  CA       106.4500   -3.1370 -224.7160 C.3   276  SER276      0.2055
     94  C        105.2270   -2.6050 -223.9880 C.2   276  SER276      0.2644
     95  O        104.2420   -2.1920 -224.6060 O.2   276  SER276     -0.2714
     96  CB       107.5200   -2.0500 -224.7920 C.3   276  SER276      0.2130
     97  OG       107.1630   -1.0340 -225.6980 O.3   276  SER276     -0.2179
     98  N        105.2910   -2.6670 -222.6550 N.am  277  GLY277     -0.1939
     99  CA       104.3040   -2.0150 -221.8300 C.3   277  GLY277      0.2014
    100  C        104.9810   -1.2450 -220.7220 C.2   277  GLY277      0.2639
    101  O        105.8830   -0.4420 -220.9660 O.2   277  GLY277     -0.2714
    102  N        104.5570   -1.4980 -219.4890 N.am  278  TRP278     -0.1959
    103  CA       105.2600   -0.9990 -218.3230 C.3   278  TRP278      0.1771
    104  C        105.3600   -2.1120 -217.2940 C.2   278  TRP278      0.2620
    105  O        104.6420   -3.1120 -217.3490 O.2   278  TRP278     -0.2715
    106  CB       104.5870    0.2420 -217.7150 C.3   278  TRP278      0.0590
    107  CG       103.1110    0.1190 -217.4430 C.ar  278  TRP278      0.0006
    108  CD1      102.5120   -0.4000 -216.3230 C.ar  278  TRP278      0.0946
    109  CD2      102.0540    0.5620 -218.2950 C.ar  278  TRP278      0.0152
    110  NE1      101.1440   -0.2980 -216.4290 N.ar  278  TRP278     -0.2442
    111  CE2      100.8380    0.2730 -217.6390 C.ar  278  TRP278      0.0810
    112  CE3      102.0160    1.1730 -219.5580 C.ar  278  TRP278      0.0012
    113  CZ2       99.5980    0.5710 -218.2030 C.ar  278  TRP278      0.0191
    114  CZ3      100.7830    1.4670 -220.1180 C.ar  278  TRP278      0.0001
    115  CH2       99.5870    1.1670 -219.4350 C.ar  278  TRP278      0.0015
    116  N        106.2640   -1.9130 -216.3450 N.am  279  TYR279     -0.1960
    117  CA       106.6190   -2.9730 -215.4310 C.3   279  TYR279      0.1771
    118  C        105.5810   -3.1270 -214.3330 C.2   279  TYR279      0.2619
    119  O        105.0110   -2.1520 -213.8380 O.2   279  TYR279     -0.2715
    120  CB       107.9900   -2.6970 -214.8150 C.3   279  TYR279      0.0574
    121  CG       109.1410   -3.4140 -215.5080 C.ar  279  TYR279     -0.0198
    122  CD1      109.1490   -4.7920 -215.6170 C.ar  279  TYR279     -0.0009
    123  CD2      110.2250   -2.7160 -216.0220 C.ar  279  TYR279     -0.0009
    124  CE1      110.1980   -5.4600 -216.2080 C.ar  279  TYR279      0.0417
    125  CE2      111.2890   -3.3840 -216.6220 C.ar  279  TYR279      0.0417
    126  CZ       111.2630   -4.7550 -216.7040 C.ar  279  TYR279      0.1957
    127  OH       112.3060   -5.4310 -217.2900 O.3   279  TYR279     -0.2866
    128  N        105.3250   -4.3670 -213.9660 N.am  280  MET280     -0.1977
    129  CA       104.7700   -4.6570 -212.6660 C.3   280  MET280      0.1605
    130  C        105.9380   -4.8220 -211.6900 C.2   280  MET280      0.2287
    131  O        106.9580   -5.4360 -212.0200 O.2   280  MET280     -0.2864
    132  CB       103.8900   -5.8980 -212.7150 C.3   280  MET280      0.0413
    133  CG       103.5500   -6.3280 -211.2950 C.3   280  MET280      0.0598
    134  SD       102.3140   -7.5880 -211.2760 S.3   280  MET280     -0.1393
    135  CE       103.3190   -9.0430 -211.5540 C.3   280  MET280      0.0692
    136  N        108.2660   -7.8600 -210.9880 N.3   283  GLU283     -0.1245
    137  CA       109.1560   -8.4150 -212.0000 C.3   283  GLU283      0.1567
    138  C        110.5720   -7.9420 -211.7540 C.2   283  GLU283      0.2260
    139  O        111.5390   -8.6990 -211.9220 O.2   283  GLU283     -0.2867
    140  CB       108.6950   -8.0100 -213.4010 C.3   283  GLU283      0.0388
    141  CG       107.2490   -8.2950 -213.6880 C.3   283  GLU283      0.1160
    142  CD       106.8760   -7.7840 -215.0810 C.2   283  GLU283      0.3649
    143  OE1      107.3020   -8.4040 -216.0810 O.co2 283  GLU283     -0.2457
    144  OE2      106.1950   -6.7410 -215.1610 O.co2 283  GLU283     -0.2457
    145  N        111.5830  -11.0740 -209.1930 N.3   287  ARG287     -0.1245
    146  CA       112.2390  -11.8980 -210.2110 C.3   287  ARG287      0.1563
    147  C        113.6490  -11.4060 -210.5250 C.2   287  ARG287      0.2260
    148  O        114.6230  -12.1080 -210.2540 O.2   287  ARG287     -0.2867
    149  CB       111.4180  -11.9650 -211.5210 C.3   287  ARG287      0.0307
    150  CG       112.1440  -12.7460 -212.6670 C.3   287  ARG287      0.0489
    151  CD       111.7190  -12.2530 -214.0750 C.3   287  ARG287      0.2205
    152  NE       110.2870  -12.0640 -214.0910 N.pl3 287  ARG287     -0.0865
    153  CZ       109.6590  -11.0760 -214.7030 C.cat 287  ARG287      0.5346
    154  NH1      110.3270  -10.1720 -215.4060 N.pl3 287  ARG287      0.1354
    155  NH2      108.3450  -11.0130 -214.6150 N.pl3 287  ARG287      0.1354
    156  N        101.2090  -18.1000 -213.8800 N.3   369  TRP369     -0.1241
    157  CA       101.8800  -16.8710 -214.2970 C.3   369  TRP369      0.1605
    158  C        101.1000  -15.6100 -213.9410 C.2   369  TRP369      0.2264
    159  O        101.7090  -14.5540 -213.7490 O.2   369  TRP369     -0.2867
    160  CB       102.1390  -16.9040 -215.8100 C.3   369  TRP369      0.0550
    161  CG       103.3370  -17.7300 -216.1820 C.ar  369  TRP369      0.0003
    162  CD1      103.5190  -19.0650 -215.9550 C.ar  369  TRP369      0.0946
    163  CD2      104.5220  -17.2670 -216.8220 C.ar  369  TRP369      0.0152
    164  NE1      104.7550  -19.4600 -216.4160 N.ar  369  TRP369     -0.2442
    165  CE2      105.3850  -18.3720 -216.9640 C.ar  369  TRP369      0.0810
    166  CE3      104.9410  -16.0200 -217.2960 C.ar  369  TRP369      0.0012
    167  CZ2      106.6350  -18.2680 -217.5660 C.ar  369  TRP369      0.0191
    168  CZ3      106.1810  -15.9190 -217.9010 C.ar  369  TRP369      0.0001
    169  CH2      107.0120  -17.0370 -218.0360 C.ar  369  TRP369      0.0015
    170  N        106.1800  -18.4340 -228.7340 N.3   397  TYR397     -0.1241
    171  CA       107.6220  -18.6600 -228.6770 C.3   397  TYR397      0.1605
    172  C        108.1280  -19.1930 -230.0150 C.2   397  TYR397      0.2264
    173  O        107.3940  -19.8260 -230.7760 O.2   397  TYR397     -0.2867
    174  CB       107.9750  -19.6390 -227.5600 C.3   397  TYR397      0.0534
    175  CG       107.4950  -19.1930 -226.2040 C.ar  397  TYR397     -0.0201
    176  CD1      107.7900  -17.9220 -225.7220 C.ar  397  TYR397     -0.0009
    177  CD2      106.7300  -20.0380 -225.4110 C.ar  397  TYR397     -0.0009
    178  CE1      107.3330  -17.5080 -224.4910 C.ar  397  TYR397      0.0417
    179  CE2      106.2800  -19.6400 -224.1670 C.ar  397  TYR397      0.0417
    180  CZ       106.5810  -18.3770 -223.7140 C.ar  397  TYR397      0.1957
    181  OH       106.1250  -17.9800 -222.4860 O.3   397  TYR397     -0.2866
@<TRIPOS>BOND
     1    76    75    2
     2    75    74    1
     3   173   172    2
     4    68    67    2
     5   172   171    1
     6    74    73    1
     7    74    77    1
     8    67    73   am
     9    67    66    1
    10    66    65    1
    11    66    69    1
    12    77    78    1
    13   170   171    1
    14    81    82    1
    15   171   174    1
    16    69    70    1
    17    88    90   ar
    18    88    86   ar
    19    82    85    1
    20    82    83    1
    21    85    86    1
    22    90    91   ar
    23    61    60    2
    24   174   175    1
    25    78    79    1
    26    86    87   ar
    27    70    71    2
    28    70    72   am
    29    60    59    1
    30    80    79    1
    31    83    92   am
    32    83    84    2
    33    25    26    1
    34    91    89   ar
    35   175   176   ar
    36   175   177   ar
    37    92    93    1
    38    87    89   ar
    39    26    27    1
    40    26    29    1
    41    34    33    2
    42   176   178   ar
    43    97    96    1
    44    63    62    1
    45    33    32    1
    46    28    27    2
    47    27    31   am
    48   177   179   ar
    49    59    58    1
    50    59    62    1
    51    31    32    1
    52    32    35    1
    53    62    64    1
    54    29    30    1
    55    96    93    1
    56    93    94    1
    57    95    94    2
    58   178   180   ar
    59   179   180   ar
    60    14    16   ar
    61    14    13   ar
    62    94    98   am
    63    16    18   ar
    64   180   181    1
    65    12    13    1
    66    12     9    1
    67    35    36    1
    68    13    15   ar
    69    10    11    2
    70    10     9    1
    71    18    17   ar
    72     9     8    1
    73    36    37    1
    74    98    99    1
    75    15    17   ar
    76    45    44    1
    77    45    46    1
    78    54    53    2
    79    40    41    1
    80    53    52    1
    81    44    41    1
    82    99   100    1
    83    46    47    1
    84    43    42    2
    85     8     3   am
    86     4     3    2
    87    37    38    2
    88    37    39   am
    89    41    42    1
    90   101   100    2
    91     3     2    1
    92   100   102   am
    93    52    51    1
    94    52    55    1
    95    23    24    1
    96    23    20    1
    97    47    48    2
    98    51    57    1
    99   114   112   ar
   100   114   115   ar
   101    57    56    1
   102    55    56    1
   103     6     5    1
   104   112   109   ar
   105    49    48    1
   106   102   103    1
   107    19    20    1
   108   115   113   ar
   109    48    50    1
   110    20    21    1
   111     2     5    1
   112     2     1    1
   113     5     7    1
   114    22    21    2
   115   103   106    1
   116   103   104    1
   117   109   111   ar
   118   109   107   ar
   119   113   111   ar
   120   169   168   ar
   121   169   167   ar
   122   168   166   ar
   123   106   107    1
   124   111   110   ar
   125   167   165   ar
   126   107   108   ar
   127   105   104    2
   128   166   163   ar
   129   104   116   am
   130   127   126    1
   131   165   163   ar
   132   165   164   ar
   133   163   161   ar
   134   126   125   ar
   135   126   124   ar
   136   125   123   ar
   137   110   108   ar
   138   164   162   ar
   139   116   117    1
   140   124   122   ar
   141   161   162   ar
   142   161   160    1
   143   143   142   ar
   144   123   121   ar
   145   160   157    1
   146   122   121   ar
   147   121   120    1
   148   117   120    1
   149   117   118    1
   150   154   153    1
   151   144   142   ar
   152   142   141    1
   153   153   155    1
   154   153   152    2
   155   118   128   am
   156   118   119    2
   157   157   158    1
   158   157   156    1
   159   152   151    1
   160   151   150    1
   161   128   129    1
   162   158   159    2
   163   141   140    1
   164   140   137    1
   165   132   129    1
   166   132   133    1
   167   150   149    1
   168   129   130    1
   169   131   130    2
   170   137   138    1
   171   137   136    1
   172   139   138    2
   173   135   134    1
   174   149   146    1
   175   133   134    1
   176   147   148    2
   177   147   146    1
   178   146   145    1
