@<TRIPOS>MOLECULE
tmp/6nh6C03.pdb
 159 158 0 0 0
SMALL
GASTEIGER

@<TRIPOS>ATOM
      1  N         89.2690  -27.0200 -208.5920 N.3    37  VAL37      -0.1231
      2  CA        89.4000  -27.6920 -207.2960 C.3    37  VAL37       0.1692
      3  C         88.7820  -29.0880 -207.3340 C.2    37  VAL37       0.2592
      4  O         89.3970  -30.0730 -206.9100 O.2    37  VAL37      -0.2718
      5  CB        88.7520  -26.8480 -206.1860 C.3    37  VAL37       0.0266
      6  CG1       88.8790  -27.5720 -204.8450 C.3    37  VAL37       0.0020
      7  CG2       89.4050  -25.4960 -206.1100 C.3    37  VAL37       0.0020
      8  N         87.5310  -29.1780 -207.7730 N.am   38  PHE38      -0.1976
      9  CA        86.7900  -30.4310 -207.8020 C.3    38  PHE38       0.1639
     10  C         86.6300  -30.8590 -209.2600 C.2    38  PHE38       0.2290
     11  O         85.7270  -30.3710 -209.9600 O.2    38  PHE38      -0.2864
     12  CB        85.4280  -30.2730 -207.1090 C.3    38  PHE38       0.0560
     13  CG        85.5260  -30.0680 -205.5980 C.ar   38  PHE38      -0.0200
     14  CD1       85.6860  -31.1490 -204.7400 C.ar   38  PHE38      -0.0042
     15  CD2       85.4770  -28.8020 -205.0490 C.ar   38  PHE38      -0.0042
     16  CE1       85.7960  -30.9640 -203.3530 C.ar   38  PHE38      -0.0003
     17  CE2       85.5880  -28.6090 -203.6620 C.ar   38  PHE38      -0.0003
     18  CZ        85.7460  -29.6920 -202.8150 C.ar   38  PHE38      -0.0000
     19  N         99.5150  -32.9140 -202.0370 N.3   105  CYS105     -0.1235
     20  CA       100.1010  -32.8940 -200.6960 C.3   105  CYS105      0.1677
     21  C        101.5870  -32.5380 -200.7620 C.2   105  CYS105      0.2270
     22  O        102.3910  -33.3080 -201.3050 O.2   105  CYS105     -0.2867
     23  CB        99.9250  -34.2380 -199.9830 C.3   105  CYS105      0.0956
     24  SG       100.6780  -34.1880 -198.3080 S.3   105  CYS105     -0.0801
     25  N         83.9440  -31.8790 -191.9560 N.3   167  SER167     -0.1202
     26  CA        85.0420  -31.9830 -192.9150 C.3   167  SER167      0.2020
     27  C         86.3830  -32.1680 -192.2160 C.2   167  SER167      0.2618
     28  O         87.2970  -32.7810 -192.7790 O.2   167  SER167     -0.2717
     29  CB        85.0890  -30.7420 -193.7920 C.3   167  SER167      0.2103
     30  OG        85.3980  -29.6090 -193.0000 O.3   167  SER167     -0.2182
     31  N         86.5350  -31.6190 -191.0120 N.am  168  GLN168     -0.1979
     32  CA        87.6630  -31.9370 -190.1540 C.3   168  GLN168      0.1601
     33  C         87.1440  -32.3200 -188.7720 C.2   168  GLN168      0.2287
     34  O         86.0040  -32.0190 -188.4030 O.2   168  GLN168     -0.2864
     35  CB        88.6600  -30.7730 -190.0590 C.3   168  GLN168      0.0394
     36  CG        89.2880  -30.4050 -191.3760 C.3   168  GLN168      0.0908
     37  CD        90.5000  -29.4940 -191.2030 C.2   168  GLN168      0.2608
     38  OE1       91.0970  -29.4360 -190.1230 O.2   168  GLN168     -0.2717
     39  NE2       90.8720  -28.7840 -192.2700 N.am  168  GLN168     -0.0878
     40  N         95.6470  -30.9210 -187.6400 N.3   255  PRO255     -0.2116
     41  CA        94.8530  -30.8830 -188.8770 C.3   255  PRO255      0.1372
     42  C         94.4370  -32.2950 -189.2650 C.2   255  PRO255      0.2244
     43  O         95.2740  -33.1240 -189.6310 O.2   255  PRO255     -0.2868
     44  CB        95.8300  -30.2680 -189.8940 C.3   255  PRO255      0.0268
     45  CG        97.1720  -30.7710 -189.4720 C.3   255  PRO255      0.0207
     46  CD        97.0930  -30.9880 -187.9210 C.3   255  PRO255      0.0892
     47  N         91.6020  -34.4730 -191.4680 N.3   257  VAL257     -0.1245
     48  CA        90.5900  -34.4410 -192.5260 C.3   257  VAL257      0.1561
     49  C         89.6760  -35.6600 -192.3950 C.2   257  VAL257      0.2260
     50  O         90.1530  -36.8010 -192.3660 O.2   257  VAL257     -0.2867
     51  CB        91.2680  -34.4000 -193.9070 C.3   257  VAL257      0.0252
     52  CG1       90.2650  -34.6360 -195.0240 C.3   257  VAL257      0.0019
     53  CG2       92.0210  -33.0730 -194.0950 C.3   257  VAL257      0.0019
     54  N         86.3080  -35.9810 -194.2110 N.3   259  ASN259     -0.1225
     55  CA        85.2200  -36.1020 -195.1740 C.3   259  ASN259      0.1785
     56  C         85.6500  -36.7430 -196.4880 C.2   259  ASN259      0.2597
     57  O         84.8740  -36.7270 -197.4510 O.2   259  ASN259     -0.2718
     58  CB        84.5920  -34.7320 -195.4470 C.3   259  ASN259      0.1169
     59  CG        85.5800  -33.7430 -196.0150 C.2   259  ASN259      0.2627
     60  OD1       86.7660  -34.0460 -196.1740 O.2   259  ASN259     -0.2716
     61  ND2       85.0980  -32.5470 -196.3320 N.am  259  ASN259     -0.0877
     62  N         86.8600  -37.2910 -196.5610 N.am  260  MET260     -0.1979
     63  CA        87.3480  -37.9150 -197.7820 C.3   260  MET260      0.1605
     64  C         87.2060  -39.4350 -197.7210 C.2   260  MET260      0.2287
     65  O         87.1550  -40.0470 -196.6490 O.2   260  MET260     -0.2864
     66  CB        88.8040  -37.5280 -198.0590 C.3   260  MET260      0.0413
     67  CG        88.9830  -36.0520 -198.4000 C.3   260  MET260      0.0598
     68  SD        90.6420  -35.6400 -199.0010 S.3   260  MET260     -0.1393
     69  CE        90.5740  -36.1540 -200.7060 C.3   260  MET260      0.0692
     70  N         92.3370  -38.8340 -191.4790 N.3   274  PHE274     -0.1227
     71  CA        93.7930  -38.7970 -191.4050 C.3   274  PHE274      0.1736
     72  C         94.2460  -37.4340 -190.9020 C.2   274  PHE274      0.2596
     73  O         93.5710  -36.4230 -191.1200 O.2   274  PHE274     -0.2718
     74  CB        94.4580  -39.1000 -192.7690 C.3   274  PHE274      0.0547
     75  CG        93.9740  -38.2280 -193.9200 C.ar  274  PHE274     -0.0202
     76  CD1       94.5190  -36.9720 -194.1500 C.ar  274  PHE274     -0.0042
     77  CD2       93.0060  -38.6890 -194.7810 C.ar  274  PHE274     -0.0042
     78  CE1       94.0880  -36.1880 -195.2230 C.ar  274  PHE274     -0.0003
     79  CE2       92.5840  -37.9280 -195.8520 C.ar  274  PHE274     -0.0003
     80  CZ        93.1140  -36.6640 -196.0690 C.ar  274  PHE274     -0.0000
     81  N         95.4020  -37.4150 -190.2310 N.am  275  SER275     -0.1938
     82  CA        95.9350  -36.1860 -189.6560 C.3   275  SER275      0.2055
     83  C         97.4480  -36.1240 -189.8360 C.2   275  SER275      0.2644
     84  O         98.1200  -37.1450 -189.9840 O.2   275  SER275     -0.2714
     85  CB        95.5630  -36.0540 -188.1650 C.3   275  SER275      0.2130
     86  OG        96.2230  -37.0290 -187.3750 O.3   275  SER275     -0.2179
     87  N         97.9750  -34.9080 -189.8350 N.am  276  GLY276     -0.1939
     88  CA        99.4050  -34.7080 -189.8870 C.3   276  GLY276      0.2014
     89  C         99.8390  -33.6140 -188.9390 C.2   276  GLY276      0.2639
     90  O         99.6020  -33.6960 -187.7260 O.2   276  GLY276     -0.2714
     91  N        100.5090  -32.6020 -189.4840 N.am  277  TRP277     -0.1959
     92  CA       100.7440  -31.3370 -188.8020 C.3   277  TRP277      0.1771
     93  C        100.7330  -30.2290 -189.8490 C.2   277  TRP277      0.2620
     94  O        100.8880  -30.4780 -191.0460 O.2   277  TRP277     -0.2715
     95  CB       102.0630  -31.3160 -188.0360 C.3   277  TRP277      0.0590
     96  CG       103.2590  -31.6550 -188.8390 C.ar  277  TRP277      0.0006
     97  CD1      103.9610  -30.8200 -189.6750 C.ar  277  TRP277      0.0946
     98  CD2      103.9230  -32.9220 -188.8830 C.ar  277  TRP277      0.0152
     99  NE1      105.0190  -31.4980 -190.2330 N.ar  277  TRP277     -0.2442
    100  CE2      105.0190  -32.7870 -189.7600 C.ar  277  TRP277      0.0810
    101  CE3      103.7010  -34.1580 -188.2570 C.ar  277  TRP277      0.0012
    102  CZ2      105.8790  -33.8460 -190.0410 C.ar  277  TRP277      0.0191
    103  CZ3      104.5680  -35.2050 -188.5220 C.ar  277  TRP277      0.0001
    104  CH2      105.6430  -35.0430 -189.4050 C.ar  277  TRP277      0.0015
    105  N        100.5680  -29.0020 -189.3780 N.am  278  TYR278     -0.1960
    106  CA       100.3000  -27.8650 -190.2460 C.3   278  TYR278      0.1771
    107  C        101.5690  -27.3360 -190.9030 C.2   278  TYR278      0.2619
    108  O        102.6610  -27.3830 -190.3280 O.2   278  TYR278     -0.2715
    109  CB        99.6390  -26.7410 -189.4490 C.3   278  TYR278      0.0574
    110  CG        98.1260  -26.7590 -189.4510 C.ar  278  TYR278     -0.0198
    111  CD1       97.4150  -26.6260 -190.6470 C.ar  278  TYR278     -0.0009
    112  CD2       97.4010  -26.8820 -188.2620 C.ar  278  TYR278     -0.0009
    113  CE1       96.0310  -26.6240 -190.6650 C.ar  278  TYR278      0.0417
    114  CE2       96.0060  -26.8970 -188.2720 C.ar  278  TYR278      0.0417
    115  CZ        95.3290  -26.7570 -189.4800 C.ar  278  TYR278      0.1957
    116  OH        93.9550  -26.7500 -189.5120 O.3   278  TYR278     -0.2866
    117  N        101.4110  -26.8640 -192.1420 N.am  279  MET279     -0.1977
    118  CA       102.3020  -25.8690 -192.7210 C.3   279  MET279      0.1605
    119  C        101.7340  -24.5030 -192.3600 C.2   279  MET279      0.2287
    120  O        100.5250  -24.2890 -192.4640 O.2   279  MET279     -0.2864
    121  CB       102.4090  -26.0220 -194.2390 C.3   279  MET279      0.0413
    122  CG       103.4210  -25.0860 -194.8880 C.3   279  MET279      0.0598
    123  SD       103.7820  -25.5640 -196.5850 S.3   279  MET279     -0.1393
    124  CE       102.1780  -25.2860 -197.3520 C.3   279  MET279      0.0692
    125  N         98.9920  -22.4110 -194.1130 N.3   282  GLU282     -0.1245
    126  CA        97.6030  -22.8640 -194.0740 C.3   282  GLU282      0.1567
    127  C         96.8160  -22.0830 -193.0460 C.2   282  GLU282      0.2260
    128  O         95.6980  -21.6190 -193.3090 O.2   282  GLU282     -0.2867
    129  CB        97.5290  -24.3550 -193.7450 C.3   282  GLU282      0.0388
    130  CG        98.2000  -25.2690 -194.7330 C.3   282  GLU282      0.1160
    131  CD        98.0760  -26.7290 -194.3240 C.2   282  GLU282      0.3649
    132  OE1       96.9570  -27.2700 -194.3940 O.co2 282  GLU282     -0.2457
    133  OE2       99.0870  -27.3330 -193.9330 O.co2 282  GLU282     -0.2457
    134  N         98.8080  -26.3520 -206.1580 N.3   368  TRP368     -0.1241
    135  CA        98.6700  -26.6250 -204.7340 C.3   368  TRP368      0.1605
    136  C         99.9860  -26.9310 -204.0400 C.2   368  TRP368      0.2264
    137  O        100.0480  -26.8660 -202.8070 O.2   368  TRP368     -0.2867
    138  CB        97.7140  -27.7860 -204.5030 C.3   368  TRP368      0.0550
    139  CG        96.3390  -27.5170 -204.9850 C.ar  368  TRP368      0.0003
    140  CD1       95.9330  -27.2960 -206.2890 C.ar  368  TRP368      0.0946
    141  CD2       95.1650  -27.4500 -204.1850 C.ar  368  TRP368      0.0152
    142  NE1       94.5740  -27.1000 -206.3260 N.ar  368  TRP368     -0.2442
    143  CE2       94.0810  -27.1880 -205.0490 C.ar  368  TRP368      0.0810
    144  CE3       94.9190  -27.6110 -202.8250 C.ar  368  TRP368      0.0012
    145  CZ2       92.7810  -27.0700 -204.5870 C.ar  368  TRP368      0.0191
    146  CZ3       93.6240  -27.4870 -202.3670 C.ar  368  TRP368      0.0001
    147  CH2       92.5740  -27.2150 -203.2430 C.ar  368  TRP368      0.0015
    148  N         87.5430  -37.2260 -203.1410 N.3   396  TYR396     -0.1241
    149  CA        86.3860  -36.4850 -202.6620 C.3   396  TYR396      0.1605
    150  C         85.1220  -37.3260 -202.8070 C.2   396  TYR396      0.2264
    151  O         85.0540  -38.2450 -203.6290 O.2   396  TYR396     -0.2867
    152  CB        86.2140  -35.1900 -203.4500 C.3   396  TYR396      0.0534
    153  CG        87.4260  -34.2930 -203.4430 C.ar  396  TYR396     -0.0201
    154  CD1       88.0480  -33.9380 -202.2510 C.ar  396  TYR396     -0.0009
    155  CD2       87.9480  -33.7980 -204.6300 C.ar  396  TYR396     -0.0009
    156  CE1       89.1590  -33.1020 -202.2450 C.ar  396  TYR396      0.0417
    157  CE2       89.0530  -32.9670 -204.6390 C.ar  396  TYR396      0.0417
    158  CZ        89.6510  -32.6190 -203.4470 C.ar  396  TYR396      0.1957
    159  OH        90.7450  -31.7950 -203.4740 O.3   396  TYR396     -0.2866
@<TRIPOS>BOND
     1    11    10    2
     2    10     9    1
     3     1     2    1
     4     9     8    1
     5     9    12    1
     6     8     3   am
     7     3     2    1
     8     3     4    2
     9     2     5    1
    10    12    13    1
    11   142   140   ar
    12   142   143   ar
    13   140   139   ar
    14     5     7    1
    15     5     6    1
    16   134   135    1
    17    13    15   ar
    18    13    14   ar
    19    15    17   ar
    20   143   145   ar
    21   143   141   ar
    22   139   138    1
    23   139   141   ar
    24    14    16   ar
    25   135   138    1
    26   135   136    1
    27   157   155   ar
    28   157   158   ar
    29   155   153   ar
    30   145   147   ar
    31   141   144   ar
    32   136   137    2
    33    17    18   ar
    34   151   150    2
    35   159   158    1
    36   152   153    1
    37   152   149    1
    38   158   156   ar
    39   153   154   ar
    40    16    18   ar
    41   147   146   ar
    42   148   149    1
    43   144   146   ar
    44   150   149    1
    45   154   156   ar
    46    19    20    1
    47    22    21    2
    48    21    20    1
    49    69    68    1
    50    20    23    1
    51    23    24    1
    52    68    67    1
    53    67    66    1
    54    66    63    1
    55    63    64    1
    56    63    62    1
    57    64    65    2
    58    57    56    2
    59   124   123    1
    60   123   122    1
    61    62    56   am
    62    56    55    1
    63    61    59   am
    64    60    59    2
    65    80    79   ar
    66    80    78   ar
    67    59    58    1
    68    79    77   ar
    69    58    55    1
    70    78    76   ar
    71    55    54    1
    72    52    51    1
    73   122   121    1
    74    77    75   ar
    75   130   131    1
    76   130   129    1
    77   132   131   ar
    78   131   133   ar
    79   121   118    1
    80    76    75   ar
    81   125   126    1
    82    53    51    1
    83   126   129    1
    84   126   127    1
    85    75    74    1
    86    51    48    1
    87    29    30    1
    88    29    26    1
    89   128   127    2
    90    26    27    1
    91    26    25    1
    92    28    27    2
    93    74    71    1
    94   118   119    1
    95   118   117    1
    96    48    49    1
    97    48    47    1
    98   120   119    2
    99    49    50    2
   100    39    37   am
   101    27    31   am
   102   117   107   am
   103    70    71    1
   104    71    72    1
   105    36    37    1
   106    36    35    1
   107    37    38    2
   108    73    72    2
   109    94    93    2
   110    31    32    1
   111   107   108    2
   112   107   106    1
   113    72    81   am
   114   113   111   ar
   115   113   115   ar
   116   111   110   ar
   117   106   109    1
   118   106   105    1
   119    99   100   ar
   120    99    97   ar
   121    81    82    1
   122    32    35    1
   123    32    33    1
   124   102   100   ar
   125   102   104   ar
   126    84    83    2
   127    44    45    1
   128    44    41    1
   129    88    87    1
   130    88    89    1
   131    93   105   am
   132    93    92    1
   133    83    87   am
   134    83    82    1
   135   100    98   ar
   136    97    96   ar
   137    82    85    1
   138    43    42    2
   139   116   115    1
   140    91    89   am
   141    91    92    1
   142   115   114   ar
   143    45    46    1
   144   110   109    1
   145   110   112   ar
   146   104   103   ar
   147    42    41    1
   148    89    90    2
   149    98    96   ar
   150    98   101   ar
   151    41    40    1
   152    96    95    1
   153    92    95    1
   154    33    34    2
   155   103   101   ar
   156   114   112   ar
   157    85    86    1
   158    46    40    1
