@<TRIPOS>MOLECULE
tmp/6nh7A02.pdb
 94 92 0 0 0
SMALL
GASTEIGER

@<TRIPOS>ATOM
      1  N        -13.1470    5.0080  -26.7980 N.3    35  SER35      -0.1217
      2  CA       -12.8100    6.1460  -25.9500 C.3    35  SER35       0.1889
      3  C        -11.4780    6.7890  -26.3200 C.2    35  SER35       0.2288
      4  O        -11.1230    7.8170  -25.7330 O.2    35  SER35      -0.2866
      5  CB       -12.7700    5.7300  -24.4740 C.3    35  SER35       0.2089
      6  OG       -11.5650    5.0450  -24.2040 O.3    35  SER35      -0.2183
      7  N         -8.8870    9.1680  -27.8300 N.3    37  VAL37      -0.1231
      8  CA        -9.0260   10.5270  -28.3510 C.3    37  VAL37       0.1692
      9  C         -8.5910   10.5870  -29.8120 C.2    37  VAL37       0.2592
     10  O         -9.3340   11.0640  -30.6770 O.2    37  VAL37      -0.2718
     11  CB        -8.2390   11.5280  -27.4880 C.3    37  VAL37       0.0266
     12  CG1       -8.2090   12.8900  -28.1750 C.3    37  VAL37       0.0020
     13  CG2       -8.8830   11.6570  -26.1380 C.3    37  VAL37       0.0020
     14  N         -7.3920   10.1040  -30.1090 N.am   38  PHE38      -0.1976
     15  CA        -6.9310   10.0280  -31.4900 C.3    38  PHE38       0.1639
     16  C         -6.8670    8.5730  -31.9300 C.2    38  PHE38       0.2290
     17  O         -5.9680    7.8410  -31.4880 O.2    38  PHE38      -0.2864
     18  CB        -5.5620   10.6890  -31.6490 C.3    38  PHE38       0.0560
     19  CG        -5.5460   12.1470  -31.3010 C.ar   38  PHE38      -0.0200
     20  CD1       -4.7630   12.6130  -30.2610 C.ar   38  PHE38      -0.0042
     21  CD2       -6.3120   13.0550  -32.0160 C.ar   38  PHE38      -0.0042
     22  CE1       -4.7420   13.9600  -29.9390 C.ar   38  PHE38      -0.0003
     23  CE2       -6.2950   14.4090  -31.6980 C.ar   38  PHE38      -0.0003
     24  CZ        -5.5070   14.8590  -30.6620 C.ar   38  PHE38      -0.0000
     25  N         -2.6990   26.6660  -19.3670 N.3   186  PRO186     -0.2102
     26  CA        -1.6220   25.6680  -19.4940 C.3   186  PRO186      0.1504
     27  C         -1.6910   24.8480  -20.7660 C.2   186  PRO186      0.2575
     28  O         -0.6790   24.2460  -21.1490 O.2   186  PRO186     -0.2718
     29  CB        -1.8180   24.7760  -18.2600 C.3   186  PRO186      0.0282
     30  CG        -2.6430   25.5840  -17.3230 C.3   186  PRO186      0.0208
     31  CD        -3.5360   26.4250  -18.1830 C.3   186  PRO186      0.0893
     32  N         -2.8470   24.7900  -21.4280 N.am  187  ALA187     -0.1980
     33  CA        -2.9500   24.0500  -22.6790 C.3   187  ALA187      0.1597
     34  C         -2.2380   24.7390  -23.8360 C.2   187  ALA187      0.2287
     35  O         -2.0930   24.1240  -24.8990 O.2   187  ALA187     -0.2864
     36  CB        -4.4190   23.8270  -23.0380 C.3   187  ALA187      0.0319
     37  N        -14.9480   22.7040  -19.0410 N.3   286  ARG286     -0.1245
     38  CA       -13.6460   22.2340  -19.4970 C.3   286  ARG286      0.1563
     39  C        -12.5740   23.3160  -19.3510 C.2   286  ARG286      0.2260
     40  O        -11.5300   23.0910  -18.7300 O.2   286  ARG286     -0.2867
     41  CB       -13.7420   21.7250  -20.9430 C.3   286  ARG286      0.0307
     42  CG       -14.7710   20.5620  -21.1790 C.3   286  ARG286      0.0489
     43  CD       -14.6930   19.3120  -20.2180 C.3   286  ARG286      0.2205
     44  NE       -13.3370   18.8720  -19.8970 N.pl3 286  ARG286     -0.0865
     45  CZ       -12.5430   18.2060  -20.7210 C.cat 286  ARG286      0.5346
     46  NH1      -12.9670   17.8780  -21.9340 N.pl3 286  ARG286      0.1354
     47  NH2      -11.3200   17.8760  -20.3280 N.pl3 286  ARG286      0.1354
     48  N         -6.1060   20.6110  -15.4290 N.3   292  HIS292     -0.1226
     49  CA        -4.9650   20.9040  -16.2800 C.3   292  HIS292      0.1752
     50  C         -5.2060   22.1270  -17.1530 C.2   292  HIS292      0.2595
     51  O         -4.4770   22.3420  -18.1270 O.2   292  HIS292     -0.2718
     52  CB        -4.6180   19.6800  -17.1390 C.3   292  HIS292      0.0759
     53  CG        -5.7860   19.0950  -17.8750 C.ar  292  HIS292      0.0818
     54  ND1       -6.7980   18.4020  -17.2440 N.ar  292  HIS292     -0.2268
     55  CD2       -6.0910   19.0850  -19.1950 C.ar  292  HIS292      0.1154
     56  CE1       -7.6800   18.0000  -18.1420 C.ar  292  HIS292      0.1986
     57  NE2       -7.2740   18.3990  -19.3340 N.ar  292  HIS292     -0.2212
     58  N         -6.2250   22.9200  -16.8280 N.am  293  ARG293     -0.1980
     59  CA        -6.4890   24.1850  -17.5060 C.3   293  ARG293      0.1597
     60  C         -6.4370   25.3020  -16.4710 C.2   293  ARG293      0.2287
     61  O         -5.4650   25.3860  -15.7100 O.2   293  ARG293     -0.2864
     62  CB        -7.8360   24.1380  -18.2300 C.3   293  ARG293      0.0334
     63  CG        -7.9330   23.0260  -19.2730 C.3   293  ARG293      0.0492
     64  CD        -6.9970   23.2630  -20.4520 C.3   293  ARG293      0.2205
     65  NE        -7.2930   24.5170  -21.1410 N.pl3 293  ARG293     -0.0865
     66  CZ        -8.2970   24.6940  -22.0000 C.cat 293  ARG293      0.5346
     67  NH1       -9.1340   23.6970  -22.2860 N.pl3 293  ARG293      0.1354
     68  NH2       -8.4770   25.8850  -22.5600 N.pl3 293  ARG293      0.1354
     69  N        -19.3680    9.4140  -26.1720 N.3   367  ALA367     -0.1231
     70  CA       -18.5940   10.0230  -25.0930 C.3   367  ALA367      0.1694
     71  C        -18.3390   11.5140  -25.3020 C.2   367  ALA367      0.2592
     72  O        -18.0240   12.2120  -24.3330 O.2   367  ALA367     -0.2718
     73  CB       -17.2610    9.2920  -24.9160 C.3   367  ALA367      0.0304
     74  N        -18.4650   12.0170  -26.5290 N.am  368  TRP368     -0.1976
     75  CA       -18.2840   13.4360  -26.8010 C.3   368  TRP368      0.1640
     76  C        -19.5940   14.1920  -26.9420 C.2   368  TRP368      0.2290
     77  O        -19.6010   15.4100  -26.7600 O.2   368  TRP368     -0.2864
     78  CB       -17.4420   13.6310  -28.0670 C.3   368  TRP368      0.0576
     79  CG       -16.0650   13.1060  -27.8930 C.ar  368  TRP368      0.0006
     80  CD1      -15.7100   11.8000  -27.7630 C.ar  368  TRP368      0.0946
     81  CD2      -14.8490   13.8570  -27.8250 C.ar  368  TRP368      0.0152
     82  NE1      -14.3560   11.6880  -27.6150 N.ar  368  TRP368     -0.2442
     83  CE2      -13.8010   12.9340  -27.6520 C.ar  368  TRP368      0.0810
     84  CE3      -14.5430   15.2170  -27.8960 C.ar  368  TRP368      0.0012
     85  CZ2      -12.4690   13.3250  -27.5500 C.ar  368  TRP368      0.0191
     86  CZ3      -13.2160   15.6050  -27.7930 C.ar  368  TRP368      0.0001
     87  CH2      -12.1970   14.6640  -27.6220 C.ar  368  TRP368      0.0015
     88  N        -22.4490   13.5200  -25.0690 N.3   370  VAL370     -0.1245
     89  CA       -22.9440   13.7080  -23.6960 C.3   370  VAL370      0.1561
     90  C        -22.1480   14.8190  -23.0230 C.2   370  VAL370      0.2260
     91  O        -20.9100   14.7250  -22.9500 O.2   370  VAL370     -0.2867
     92  CB       -22.8230   12.4010  -22.8990 C.3   370  VAL370      0.0252
     93  CG1      -23.0450   12.6890  -21.3820 C.3   370  VAL370      0.0019
     94  CG2      -23.7780   11.3240  -23.4370 C.3   370  VAL370      0.0019
@<TRIPOS>BOND
     1    21    23   ar
     2    21    19   ar
     3    16    15    1
     4    16    17    2
     5    23    24   ar
     6    18    15    1
     7    18    19    1
     8    15    14    1
     9    19    20   ar
    10    10     9    2
    11    24    22   ar
    12    20    22   ar
    13    14     9   am
    14     9     8    1
    15     8     7    1
    16     8    11    1
    17    12    11    1
    18    78    79    1
    19    78    75    1
    20    84    81   ar
    21    84    86   ar
    22    79    81   ar
    23    79    80   ar
    24    81    83   ar
    25    86    87   ar
    26    80    82   ar
    27    83    82   ar
    28    83    85   ar
    29    87    85   ar
    30    11    13    1
    31    76    75    1
    32    76    77    2
    33    75    74    1
    34     1     2    1
    35    74    71   am
    36     3     2    1
    37     3     4    2
    38    69    70    1
    39     2     5    1
    40    71    70    1
    41    71    72    2
    42    70    73    1
    43    88    89    1
    44    35    34    2
    45     5     6    1
    46    34    33    1
    47    89    90    1
    48    89    92    1
    49    94    92    1
    50    36    33    1
    51    90    91    2
    52    92    93    1
    53    33    32    1
    54    68    66    1
    55    67    66    1
    56    66    65    2
    57    46    45    1
    58    32    27   am
    59    42    41    1
    60    42    43    1
    61    28    27    2
    62    65    64    1
    63    41    38    1
    64    27    26    1
    65    45    47    1
    66    45    44    2
    67    64    63    1
    68    43    44    1
    69    38    39    1
    70    38    37    1
    71    26    25    1
    72    26    29    1
    73    25    31    1
    74    39    40    2
    75    57    55   ar
    76    57    56   ar
    77    63    62    1
    78    55    53   ar
    79    29    30    1
    80    62    59    1
    81    31    30    1
    82    56    54   ar
    83    51    50    2
    84    53    54   ar
    85    53    52    1
    86    59    58    1
    87    59    60    1
    88    50    58   am
    89    50    49    1
    90    52    49    1
    91    60    61    2
    92    49    48    1
