@<TRIPOS>MOLECULE
tmp/6nh8A02.pdb
 189 185 0 0 0
SMALL
GASTEIGER

@<TRIPOS>ATOM
      1  N         58.7630   25.5080 -172.4370 N.3    37  VAL37      -0.1231
      2  CA        58.9090   26.1710 -173.7350 C.3    37  VAL37       0.1692
      3  C         58.3920   27.6030 -173.6690 C.2    37  VAL37       0.2592
      4  O         59.0630   28.5410 -174.1120 O.2    37  VAL37      -0.2718
      5  CB        58.2000   25.3690 -174.8370 C.3    37  VAL37       0.0266
      6  CG1       58.2770   26.1290 -176.2000 C.3    37  VAL37       0.0020
      7  CG2       58.8030   23.9960 -174.9440 C.3    37  VAL37       0.0020
      8  N         57.1930   27.7940 -173.1330 N.am   38  PHE38      -0.1976
      9  CA        56.6330   29.1320 -172.9780 C.3    38  PHE38       0.1639
     10  C         56.6140   29.5160 -171.5050 C.2    38  PHE38       0.2290
     11  O         55.8430   28.9320 -170.7280 O.2    38  PHE38      -0.2864
     12  CB        55.2250   29.2050 -173.5710 C.3    38  PHE38       0.0560
     13  CG        55.1720   28.8990 -175.0420 C.ar   38  PHE38      -0.0200
     14  CD1       54.6220   27.7140 -175.4960 C.ar   38  PHE38      -0.0042
     15  CD2       55.6810   29.7930 -175.9690 C.ar   38  PHE38      -0.0042
     16  CE1       54.5760   27.4260 -176.8480 C.ar   38  PHE38      -0.0003
     17  CE2       55.6400   29.5100 -177.3230 C.ar   38  PHE38      -0.0003
     18  CZ        55.0840   28.3230 -177.7630 C.ar   38  PHE38      -0.0000
     19  N         69.3010   30.9260 -179.1990 N.3   105  CYS105     -0.1235
     20  CA        69.9400   30.8780 -180.5170 C.3   105  CYS105      0.1677
     21  C         71.4140   30.5000 -180.3720 C.2   105  CYS105      0.2270
     22  O         72.1950   31.2280 -179.7470 O.2   105  CYS105     -0.2867
     23  CB        69.7940   32.2140 -181.2650 C.3   105  CYS105      0.0956
     24  SG        70.2540   32.2050 -183.0780 S.3   105  CYS105     -0.0801
     25  N         53.7020   30.3960 -189.0430 N.3   167  SER167     -0.1202
     26  CA        54.8130   30.4200 -188.1020 C.3   167  SER167      0.2020
     27  C         56.1450   30.5790 -188.8160 C.2   167  SER167      0.2618
     28  O         57.1040   31.0990 -188.2320 O.2   167  SER167     -0.2717
     29  CB        54.8240   29.1340 -187.2790 C.3   167  SER167      0.2103
     30  OG        55.1080   28.0130 -188.1090 O.3   167  SER167     -0.2182
     31  N         56.2280   30.1070 -190.0570 N.am  168  GLN168     -0.1979
     32  CA        57.3900   30.3010 -190.9070 C.3   168  GLN168      0.1601
     33  C         56.9120   30.6720 -192.3060 C.2   168  GLN168      0.2287
     34  O         55.7690   30.4000 -192.6920 O.2   168  GLN168     -0.2864
     35  CB        58.2940   29.0560 -190.9630 C.3   168  GLN168      0.0394
     36  CG        59.1530   28.8410 -189.7160 C.3   168  GLN168      0.0908
     37  CD        60.1830   27.7330 -189.8770 C.2   168  GLN168      0.2608
     38  OE1       60.5780   27.3770 -190.9870 O.2   168  GLN168     -0.2717
     39  NE2       60.6250   27.1800 -188.7540 N.am  168  GLN168     -0.0878
     40  N         56.4860   26.4500 -195.0070 N.3   171  ARG171     -0.1245
     41  CA        55.9820   25.3570 -194.1810 C.3   171  ARG171      0.1563
     42  C         55.3080   24.3380 -195.0920 C.2   171  ARG171      0.2260
     43  O         54.8040   24.6910 -196.1640 O.2   171  ARG171     -0.2867
     44  CB        54.9740   25.8590 -193.1410 C.3   171  ARG171      0.0307
     45  CG        55.5030   26.9240 -192.1920 C.3   171  ARG171      0.0489
     46  CD        55.9030   26.3100 -190.8610 C.3   171  ARG171      0.2205
     47  NE        57.0180   25.3820 -190.9970 N.pl3 171  ARG171     -0.0865
     48  CZ        57.3900   24.5260 -190.0540 C.cat 171  ARG171      0.5346
     49  NH1       56.7250   24.4750 -188.9050 N.pl3 171  ARG171      0.1354
     50  NH2       58.4220   23.7180 -190.2620 N.pl3 171  ARG171      0.1354
     51  N         65.1380   28.8310 -193.3230 N.3   255  PRO255     -0.2116
     52  CA        64.3600   28.8910 -192.0810 C.3   255  PRO255      0.1372
     53  C         64.0270   30.3340 -191.7280 C.2   255  PRO255      0.2244
     54  O         64.9150   31.1020 -191.3460 O.2   255  PRO255     -0.2868
     55  CB        65.2970   28.2360 -191.0530 C.3   255  PRO255      0.0268
     56  CG        66.6800   28.5860 -191.5390 C.3   255  PRO255      0.0207
     57  CD        66.5880   28.8220 -193.0660 C.3   255  PRO255      0.0892
     58  N         61.4440   32.5570 -189.4940 N.3   257  VAL257     -0.1245
     59  CA        60.4380   32.5930 -188.4340 C.3   257  VAL257      0.1561
     60  C         59.5730   33.8320 -188.6150 C.2   257  VAL257      0.2260
     61  O         60.0790   34.9590 -188.6280 O.2   257  VAL257     -0.2867
     62  CB        61.1000   32.5860 -187.0510 C.3   257  VAL257      0.0252
     63  CG1       60.0590   32.7820 -185.9680 C.3   257  VAL257      0.0019
     64  CG2       61.8600   31.2950 -186.8520 C.3   257  VAL257      0.0019
     65  N         56.3830   34.4160 -186.8470 N.3   259  ASN259     -0.1225
     66  CA        55.3170   34.5980 -185.8680 C.3   259  ASN259      0.1785
     67  C         55.7940   35.2060 -184.5540 C.2   259  ASN259      0.2597
     68  O         55.0290   35.2150 -183.5800 O.2   259  ASN259     -0.2718
     69  CB        54.5950   33.2700 -185.5970 C.3   259  ASN259      0.1169
     70  CG        55.4190   32.3050 -184.7650 C.2   259  ASN259      0.2627
     71  OD1       56.6490   32.3310 -184.7800 O.2   259  ASN259     -0.2716
     72  ND2       54.7340   31.4380 -184.0360 N.am  259  ASN259     -0.0877
     73  N         57.0180   35.7190 -184.4930 N.am  260  MET260     -0.1979
     74  CA        57.5360   36.3000 -183.2640 C.3   260  MET260      0.1605
     75  C         57.4350   37.8210 -183.3020 C.2   260  MET260      0.2287
     76  O         57.3770   38.4460 -184.3670 O.2   260  MET260     -0.2864
     77  CB        58.9840   35.8620 -183.0200 C.3   260  MET260      0.0413
     78  CG        59.1140   34.3750 -182.6730 C.3   260  MET260      0.0598
     79  SD        60.7260   33.9390 -182.0100 S.3   260  MET260     -0.1393
     80  CE        60.5120   34.4250 -180.2900 C.3   260  MET260      0.0692
     81  N         62.3810   36.9690 -189.5590 N.3   274  PHE274     -0.1227
     82  CA        63.8360   36.8800 -189.6510 C.3   274  PHE274      0.1736
     83  C         64.2640   35.4980 -190.1320 C.2   274  PHE274      0.2596
     84  O         63.5800   34.4970 -189.9030 O.2   274  PHE274     -0.2718
     85  CB        64.5150   37.1900 -188.3220 C.3   274  PHE274      0.0547
     86  CG        64.0310   36.3240 -187.1720 C.ar  274  PHE274     -0.0202
     87  CD1       64.5540   35.0480 -186.9690 C.ar  274  PHE274     -0.0042
     88  CD2       63.0600   36.7910 -186.3090 C.ar  274  PHE274     -0.0042
     89  CE1       64.1180   34.2500 -185.9250 C.ar  274  PHE274     -0.0003
     90  CE2       62.6190   35.9900 -185.2510 C.ar  274  PHE274     -0.0003
     91  CZ        63.1500   34.7210 -185.0630 C.ar  274  PHE274     -0.0000
     92  N         65.4120   35.4570 -190.8030 N.am  275  SER275     -0.1938
     93  CA        65.8820   34.2330 -191.4200 C.3   275  SER275      0.2055
     94  C         67.3970   34.1720 -191.3260 C.2   275  SER275      0.2644
     95  O         68.0700   35.2030 -191.3210 O.2   275  SER275     -0.2714
     96  CB        65.4380   34.1390 -192.8810 C.3   275  SER275      0.2130
     97  OG        66.1270   35.0930 -193.6690 O.3   275  SER275     -0.2179
     98  N         67.9150   32.9530 -191.1980 N.am  276  GLY276     -0.1939
     99  CA        69.3370   32.6930 -191.2200 C.3   276  GLY276      0.2014
    100  C         69.6110   31.5190 -192.1310 C.2   276  GLY276      0.2639
    101  O         69.2320   31.5440 -193.3040 O.2   276  GLY276     -0.2714
    102  N         70.2690   30.4880 -191.6070 N.am  277  TRP277     -0.1959
    103  CA        70.3820   29.2030 -192.2810 C.3   277  TRP277      0.1771
    104  C         70.2730   28.1040 -191.2330 C.2   277  TRP277      0.2620
    105  O         70.4260   28.3470 -190.0300 O.2   277  TRP277     -0.2715
    106  CB        71.6950   29.0620 -193.0770 C.3   277  TRP277      0.0590
    107  CG        72.9300   29.3830 -192.2930 C.ar  277  TRP277      0.0006
    108  CD1       73.5740   28.5680 -191.4150 C.ar  277  TRP277      0.0946
    109  CD2       73.6820   30.6040 -192.3320 C.ar  277  TRP277      0.0152
    110  NE1       74.6730   29.2080 -190.8890 N.ar  277  TRP277     -0.2442
    111  CE2       74.7590   30.4600 -191.4320 C.ar  277  TRP277      0.0810
    112  CE3       73.5380   31.8100 -193.0270 C.ar  277  TRP277      0.0012
    113  CZ2       75.6930   31.4740 -191.2150 C.ar  277  TRP277      0.0191
    114  CZ3       74.4660   32.8150 -192.8140 C.ar  277  TRP277      0.0001
    115  CH2       75.5300   32.6460 -191.9190 C.ar  277  TRP277      0.0015
    116  N         69.9910   26.8900 -191.7020 N.am  278  TYR278     -0.1960
    117  CA        69.6840   25.7800 -190.8060 C.3   278  TYR278      0.1771
    118  C         70.9430   25.2070 -190.1660 C.2   278  TYR278      0.2619
    119  O         72.0000   25.1260 -190.8030 O.2   278  TYR278     -0.2715
    120  CB        68.9680   24.6700 -191.5770 C.3   278  TYR278      0.0574
    121  CG        67.4490   24.7000 -191.5580 C.ar  278  TYR278     -0.0198
    122  CD1       66.7470   24.4600 -190.3810 C.ar  278  TYR278     -0.0009
    123  CD2       66.7150   24.9160 -192.7230 C.ar  278  TYR278     -0.0009
    124  CE1       65.3690   24.4570 -190.3560 C.ar  278  TYR278      0.0417
    125  CE2       65.3320   24.9130 -192.7070 C.ar  278  TYR278      0.0417
    126  CZ        64.6660   24.6870 -191.5180 C.ar  278  TYR278      0.1957
    127  OH        63.2950   24.6800 -191.4830 O.3   278  TYR278     -0.2866
    128  N         70.8240   24.8220 -188.8900 N.am  279  MET279     -0.1977
    129  CA        71.6760   23.7980 -188.2990 C.3   279  MET279      0.1605
    130  C         71.0610   22.4360 -188.6090 C.2   279  MET279      0.2287
    131  O         69.8460   22.2570 -188.4830 O.2   279  MET279     -0.2864
    132  CB        71.8090   23.9830 -186.7830 C.3   279  MET279      0.0413
    133  CG        72.8520   23.0730 -186.1650 C.3   279  MET279      0.0598
    134  SD        73.1930   23.4750 -184.4350 S.3   279  MET279     -0.1393
    135  CE        71.6150   23.0710 -183.6930 C.3   279  MET279      0.0692
    136  N         68.2550   20.5220 -186.7630 N.3   282  GLU282     -0.1245
    137  CA        66.8880   21.0330 -186.7670 C.3   282  GLU282      0.1567
    138  C         66.0380   20.2640 -187.7640 C.2   282  GLU282      0.2260
    139  O         64.8910   19.9020 -187.4720 O.2   282  GLU282     -0.2867
    140  CB        66.8580   22.5230 -187.1050 C.3   282  GLU282      0.0388
    141  CG        67.6420   23.4510 -186.1940 C.3   282  GLU282      0.1160
    142  CD        67.4740   24.9210 -186.6260 C.2   282  GLU282      0.3649
    143  OE1       66.3570   25.4650 -186.4630 O.co2 282  GLU282     -0.2457
    144  OE2       68.4490   25.5230 -187.1420 O.co2 282  GLU282     -0.2457
    145  N         62.7290   17.9270 -187.0670 N.3   287  ASN287     -0.1240
    146  CA        61.6440   17.9890 -188.0410 C.3   287  ASN287      0.1653
    147  C         61.3220   16.6080 -188.5970 C.2   287  ASN287      0.2266
    148  O         60.1530   16.2830 -188.8260 O.2   287  ASN287     -0.2867
    149  CB        62.0000   18.9560 -189.1750 C.3   287  ASN287      0.1155
    150  CG        62.1380   20.3930 -188.7010 C.2   287  ASN287      0.2627
    151  OD1       61.7310   20.7390 -187.5860 O.2   287  ASN287     -0.2716
    152  ND2       62.7050   21.2410 -189.5510 N.am  287  ASN287     -0.0877
    153  N         56.2520   14.9450 -185.3140 N.3   293  ARG293     -0.1245
    154  CA        56.5270   15.5920 -186.5930 C.3   293  ARG293      0.1563
    155  C         56.5060   14.5250 -187.6810 C.2   293  ARG293      0.2260
    156  O         55.5900   13.7000 -187.7050 O.2   293  ARG293     -0.2867
    157  CB        57.8640   16.3470 -186.5550 C.3   293  ARG293      0.0307
    158  CG        57.9340   17.4490 -185.4950 C.3   293  ARG293      0.0489
    159  CD        57.0050   18.6290 -185.7680 C.3   293  ARG293      0.2205
    160  NE        57.3130   19.3030 -187.0370 N.pl3 293  ARG293     -0.0865
    161  CZ        58.3710   20.0890 -187.2350 C.cat 293  ARG293      0.5346
    162  NH1       59.2400   20.3030 -186.2520 N.pl3 293  ARG293      0.1354
    163  NH2       58.5680   20.6510 -188.4300 N.pl3 293  ARG293      0.1354
    164  N         68.2780   24.6000 -174.8840 N.3   368  TRP368     -0.1241
    165  CA        68.0970   24.8790 -176.3100 C.3   368  TRP368      0.1605
    166  C         69.4060   25.0340 -177.0640 C.2   368  TRP368      0.2264
    167  O         69.4200   24.8930 -178.2980 O.2   368  TRP368     -0.2867
    168  CB        67.2710   26.1550 -176.4990 C.3   368  TRP368      0.0550
    169  CG        65.7860   25.9580 -176.3530 C.ar  368  TRP368      0.0003
    170  CD1       65.1080   25.5390 -175.2430 C.ar  368  TRP368      0.0946
    171  CD2       64.7970   26.2120 -177.3560 C.ar  368  TRP368      0.0152
    172  NE1       63.7550   25.5060 -175.5020 N.ar  368  TRP368     -0.2442
    173  CE2       63.5440   25.9140 -176.7950 C.ar  368  TRP368      0.0810
    174  CE3       64.8540   26.6690 -178.6760 C.ar  368  TRP368      0.0012
    175  CZ2       62.3540   26.0540 -177.5110 C.ar  368  TRP368      0.0191
    176  CZ3       63.6710   26.8030 -179.3870 C.ar  368  TRP368      0.0001
    177  CH2       62.4410   26.4960 -178.8010 C.ar  368  TRP368      0.0015
    178  N         57.7170   35.7480 -177.8080 N.3   396  TYR396     -0.1241
    179  CA        56.5810   34.9860 -178.2990 C.3   396  TYR396      0.1605
    180  C         55.3020   35.8020 -178.1580 C.2   396  TYR396      0.2264
    181  O         55.1950   36.7040 -177.3210 O.2   396  TYR396     -0.2867
    182  CB        56.4160   33.6710 -177.5390 C.3   396  TYR396      0.0534
    183  CG        57.5550   32.6990 -177.6820 C.ar  396  TYR396     -0.0201
    184  CD1       57.9240   32.2000 -178.9290 C.ar  396  TYR396     -0.0009
    185  CD2       58.2420   32.2480 -176.5590 C.ar  396  TYR396     -0.0009
    186  CE1       58.9630   31.2960 -179.0530 C.ar  396  TYR396      0.0417
    187  CE2       59.2750   31.3480 -176.6690 C.ar  396  TYR396      0.0417
    188  CZ        59.6340   30.8730 -177.9140 C.ar  396  TYR396      0.1957
    189  OH        60.6630   29.9700 -178.0130 O.3   396  TYR396     -0.2866
@<TRIPOS>BOND
     1    43    42    2
     2    42    41    1
     3    40    41    1
     4    41    44    1
     5    97    96    1
     6    51    57    1
     7    51    52    1
     8   101   100    2
     9    44    45    1
    10   106   107    1
    11   106   103    1
    12    57    56    1
    13   112   114   ar
    14   112   109   ar
    15    96    93    1
    16   114   115   ar
    17   123   125   ar
    18   123   121   ar
    19   125   126   ar
    20    34    33    2
    21   109   107   ar
    22   109   111   ar
    23    33    32    1
    24   107   108   ar
    25   103   102    1
    26   103   104    1
    27    45    46    1
    28   100   102   am
    29   100    99    1
    30    52    53    1
    31    52    55    1
    32   115   113   ar
    33    53    54    2
    34   116   104   am
    35   116   117    1
    36   120   121    1
    37   120   117    1
    38   121   122   ar
    39    56    55    1
    40   126   127    1
    41   126   124   ar
    42   111   113   ar
    43   111   110   ar
    44    93    94    1
    45    93    92    1
    46   108   110   ar
    47    94    95    2
    48    94    98   am
    49   104   105    2
    50    99    98    1
    51    47    46    1
    52    47    48    2
    53    38    37    2
    54    35    32    1
    55    35    36    1
    56    32    31    1
    57   117   118    1
    58   119   118    2
    59    92    83   am
    60   122   124   ar
    61    50    48    1
    62   118   128   am
    63    83    84    2
    64    83    82    1
    65    31    27   am
    66    48    49    1
    67    37    36    1
    68    37    39   am
    69    82    81    1
    70    82    85    1
    71   152   150   am
    72    58    59    1
    73   149   150    1
    74   149   146    1
    75    25    26    1
    76   128   129    1
    77   148   147    2
    78    27    28    2
    79    27    26    1
    80   150   151    2
    81    61    60    2
    82    60    59    1
    83   130   131    2
    84   130   129    1
    85   147   146    1
    86    59    62    1
    87   163   161    1
    88    85    86    1
    89   129   132    1
    90    30    29    1
    91    26    29    1
    92   146   145    1
    93   138   139    2
    94   138   137    1
    95   156   155    2
    96   155   154    1
    97   161   160    2
    98   161   162    1
    99    86    87   ar
   100    86    88   ar
   101   144   142   ar
   102   140   137    1
   103   140   141    1
   104    62    64    1
   105    62    63    1
   106   160   159    1
   107    87    89   ar
   108    65    66    1
   109   132   133    1
   110   137   136    1
   111   142   143   ar
   112   142   141    1
   113   154   157    1
   114   154   153    1
   115   157   158    1
   116    88    90   ar
   117   133   134    1
   118    89    91   ar
   119    66    69    1
   120    66    67    1
   121   159   158    1
   122    69    70    1
   123    90    91   ar
   124    71    70    2
   125    70    72   am
   126    67    73   am
   127    67    68    2
   128    73    74    1
   129   134   135    1
   130    76    75    2
   131    75    74    1
   132    74    77    1
   133    24    23    1
   134    77    78    1
   135    78    79    1
   136    79    80    1
   137    23    20    1
   138    20    21    1
   139    20    19    1
   140    21    22    2
   141   176   177   ar
   142   176   174   ar
   143   186   184   ar
   144   186   188   ar
   145   184   183   ar
   146   177   175   ar
   147   174   171   ar
   148   179   180    1
   149   179   178    1
   150   179   182    1
   151   167   166    2
   152   180   181    2
   153   189   188    1
   154   188   187   ar
   155    18    17   ar
   156    18    16   ar
   157   183   182    1
   158   183   185   ar
   159   175   173   ar
   160   171   173   ar
   161   171   169   ar
   162    17    15   ar
   163   166   165    1
   164    16    14   ar
   165   173   172   ar
   166   187   185   ar
   167   168   169    1
   168   168   165    1
   169   169   170   ar
   170   165   164    1
   171     6     5    1
   172    15    13   ar
   173   172   170   ar
   174    14    13   ar
   175    13    12    1
   176     7     5    1
   177     5     2    1
   178     4     3    2
   179     2     3    1
   180     2     1    1
   181     3     8   am
   182    12     9    1
   183     8     9    1
   184     9    10    1
   185    10    11    2
