@<TRIPOS>MOLECULE
tmp/6nhbB03.pdb
 195 192 0 0 0
SMALL
GASTEIGER

@<TRIPOS>ATOM
      1  N        107.2670  254.1830  334.8320 N.3    39  MET39      -0.1245
      2  CA       107.7640  253.6980  333.5440 C.3    39  MET39       0.1570
      3  C        107.6280  254.7570  332.4520 C.2    39  MET39       0.2261
      4  O        108.5740  255.0090  331.6880 O.2    39  MET39      -0.2867
      5  CB       107.0240  252.4230  333.1520 C.3    39  MET39       0.0387
      6  CG       107.2630  251.9930  331.7060 C.3    39  MET39       0.0595
      7  SD       108.0340  250.3740  331.6380 S.3    39  MET39      -0.1393
      8  CE       107.1020  249.4950  332.8900 C.3    39  MET39       0.0692
      9  N        108.4080  245.0530  318.4650 N.3   175  GLN175     -0.1245
     10  CA       109.7030  244.6480  317.9340 C.3   175  GLN175      0.1566
     11  C        109.5130  243.9980  316.5660 C.2   175  GLN175      0.2260
     12  O        108.4750  243.3850  316.3020 O.2   175  GLN175     -0.2867
     13  CB       110.4310  243.6720  318.8610 C.3   175  GLN175      0.0367
     14  CG       110.5890  244.1450  320.3030 C.3   175  GLN175      0.0905
     15  CD       110.9830  243.0080  321.2350 C.2   175  GLN175      0.2608
     16  OE1      111.6620  242.0600  320.8270 O.2   175  GLN175     -0.2717
     17  NE2      110.5420  243.0870  322.4880 N.am  175  GLN175     -0.0878
     18  N        108.9620  239.1310  316.9870 N.3   178  ARG178     -0.1245
     19  CA       108.3820  238.7050  318.2520 C.3   178  ARG178      0.1563
     20  C        107.5260  237.4720  318.0090 C.2   178  ARG178      0.2260
     21  O        107.1120  237.1890  316.8800 O.2   178  ARG178     -0.2867
     22  CB       107.5300  239.8000  318.8960 C.3   178  ARG178      0.0307
     23  CG       108.3370  240.9050  319.5090 C.3   178  ARG178      0.0489
     24  CD       107.5230  241.6880  320.5250 C.3   178  ARG178      0.2205
     25  NE       107.5280  241.0660  321.8440 N.pl3 178  ARG178     -0.0865
     26  CZ       107.0800  241.6650  322.9450 C.cat 178  ARG178      0.5346
     27  NH1      106.5980  242.9020  322.8860 N.pl3 178  ARG178      0.1354
     28  NH2      107.1100  241.0310  324.1090 N.pl3 178  ARG178      0.1354
     29  N        102.5400  238.8170  326.2150 N.3   194  ALA194     -0.1245
     30  CA       102.6800  240.2580  326.0090 C.3   194  ALA194      0.1562
     31  C        102.1700  240.7090  324.6420 C.2   194  ALA194      0.2260
     32  O        101.9000  241.9010  324.4510 O.2   194  ALA194     -0.2867
     33  CB       104.1410  240.6720  326.1810 C.3   194  ALA194      0.0290
     34  N        114.4320  231.0680  321.2520 N.3   258  TRP258     -0.1227
     35  CA       114.2460  232.5010  321.1240 C.3   258  TRP258      0.1737
     36  C        114.8910  232.9800  319.8300 C.2   258  TRP258      0.2595
     37  O        115.6870  232.2730  319.2030 O.2   258  TRP258     -0.2718
     38  CB       114.8140  233.2650  322.3290 C.3   258  TRP258      0.0564
     39  CG       114.1050  234.5560  322.5420 C.ar  258  TRP258      0.0003
     40  CD1      114.5780  235.8070  322.2650 C.ar  258  TRP258      0.0946
     41  CD2      112.7710  234.7280  323.0370 C.ar  258  TRP258      0.0152
     42  NE1      113.6310  236.7480  322.5760 N.ar  258  TRP258     -0.2442
     43  CE2      112.5110  236.1120  323.0560 C.ar  258  TRP258      0.0810
     44  CE3      111.7760  233.8470  323.4730 C.ar  258  TRP258      0.0012
     45  CZ2      111.2930  236.6390  323.4910 C.ar  258  TRP258      0.0191
     46  CZ3      110.5650  234.3720  323.9040 C.ar  258  TRP258      0.0001
     47  CH2      110.3380  235.7560  323.9100 C.ar  258  TRP258      0.0015
     48  N        114.5170  234.1870  319.4260 N.am  259  TYR259     -0.1976
     49  CA       115.1380  234.8100  318.2690 C.3   259  TYR259      0.1639
     50  C        116.3940  235.5680  318.6770 C.2   259  TYR259      0.2290
     51  O        116.5430  236.0090  319.8210 O.2   259  TYR259     -0.2864
     52  CB       114.1690  235.7490  317.5680 C.3   259  TYR259      0.0560
     53  CG       113.3620  236.6140  318.4830 C.ar  259  TYR259     -0.0198
     54  CD1      113.8570  237.8350  318.9270 C.ar  259  TYR259     -0.0009
     55  CD2      112.0990  236.2250  318.9040 C.ar  259  TYR259     -0.0009
     56  CE1      113.1170  238.6460  319.7650 C.ar  259  TYR259      0.0417
     57  CE2      111.3450  237.0350  319.7640 C.ar  259  TYR259      0.0417
     58  CZ       111.8680  238.2410  320.1940 C.ar  259  TYR259      0.1957
     59  OH       111.1460  239.0770  321.0220 O.3   259  TYR259     -0.2866
     60  N        117.2040  241.3800  318.9430 N.3   262  PRO262     -0.2116
     61  CA       116.2750  242.3170  319.6040 C.3   262  PRO262      0.1372
     62  C        116.2060  243.6160  318.8100 C.2   262  PRO262      0.2244
     63  O        117.2130  244.2980  318.6220 O.2   262  PRO262     -0.2868
     64  CB       116.9070  242.5300  320.9850 C.3   262  PRO262      0.0268
     65  CG       118.3590  242.3340  320.7700 C.3   262  PRO262      0.0207
     66  CD       118.4750  241.2600  319.6830 C.3   262  PRO262      0.0892
     67  N        113.8230  246.9770  318.5470 N.3   264  VAL264     -0.1245
     68  CA       112.7210  247.7880  319.0500 C.3   264  VAL264      0.1561
     69  C        112.1950  248.6800  317.9430 C.2   264  VAL264      0.2260
     70  O        112.9440  249.4690  317.3470 O.2   264  VAL264     -0.2867
     71  CB       113.1730  248.6290  320.2440 C.3   264  VAL264      0.0252
     72  CG1      112.1490  249.7550  320.5180 C.3   264  VAL264      0.0019
     73  CG2      113.3470  247.7190  321.4310 C.3   264  VAL264      0.0019
     74  N        115.2800  249.9440  315.7310 N.3   281  PHE281     -0.1227
     75  CA       116.6940  249.8810  316.0390 C.3   281  PHE281      0.1736
     76  C        116.9870  248.5460  316.7010 C.2   281  PHE281      0.2596
     77  O        116.1060  247.9060  317.2750 O.2   281  PHE281     -0.2718
     78  CB       117.1650  251.0710  316.9040 C.3   281  PHE281      0.0547
     79  CG       116.4060  251.2420  318.1760 C.ar  281  PHE281     -0.0202
     80  CD1      116.7890  250.5600  319.3170 C.ar  281  PHE281     -0.0042
     81  CD2      115.3140  252.0910  318.2400 C.ar  281  PHE281     -0.0042
     82  CE1      116.0930  250.7120  320.4890 C.ar  281  PHE281     -0.0003
     83  CE2      114.6090  252.2490  319.4160 C.ar  281  PHE281     -0.0003
     84  CZ       115.0050  251.5650  320.5400 C.ar  281  PHE281     -0.0000
     85  N        118.2140  248.0820  316.5310 N.am  282  SER282     -0.1938
     86  CA       118.5250  246.7260  316.9260 C.3   282  SER282      0.2055
     87  C        119.9660  246.6850  317.3880 C.2   282  SER282      0.2644
     88  O        120.8080  247.4380  316.8980 O.2   282  SER282     -0.2714
     89  CB       118.2700  245.7250  315.7880 C.3   282  SER282      0.2130
     90  OG       119.2320  245.8350  314.7520 O.3   282  SER282     -0.2179
     91  N        120.2150  245.8460  318.3850 N.am  283  GLY283     -0.1939
     92  CA       121.5590  245.5060  318.7970 C.3   283  GLY283      0.2014
     93  C        121.6610  244.0070  318.9940 C.2   283  GLY283      0.2639
     94  O        121.3390  243.2210  318.0920 O.2   283  GLY283     -0.2714
     95  N        122.0880  243.5890  320.1790 N.am  284  TRP284     -0.1959
     96  CA       122.0560  242.1840  320.5490 C.3   284  TRP284      0.1771
     97  C        121.6190  242.0710  322.0120 C.2   284  TRP284      0.2620
     98  O        121.6260  243.0540  322.7580 O.2   284  TRP284     -0.2715
     99  CB       123.4140  241.5290  320.3180 C.3   284  TRP284      0.0590
    100  CG       124.5470  242.2520  321.0100 C.ar  284  TRP284      0.0006
    101  CD1      124.8760  242.1930  322.3370 C.ar  284  TRP284      0.0946
    102  CD2      125.4850  243.1500  320.4040 C.ar  284  TRP284      0.0152
    103  NE1      125.9640  243.0000  322.5930 N.ar  284  TRP284     -0.2442
    104  CE2      126.3530  243.6000  321.4210 C.ar  284  TRP284      0.0810
    105  CE3      125.6760  243.6180  319.1000 C.ar  284  TRP284      0.0012
    106  CZ2      127.3970  244.4910  321.1680 C.ar  284  TRP284      0.0191
    107  CZ3      126.7100  244.5080  318.8570 C.ar  284  TRP284      0.0001
    108  CH2      127.5590  244.9290  319.8790 C.ar  284  TRP284      0.0015
    109  N        121.2500  240.8550  322.4210 N.am  285  TYR285     -0.1960
    110  CA       120.6240  240.6330  323.7230 C.3   285  TYR285      0.1771
    111  C        121.6320  240.5920  324.8620 C.2   285  TYR285      0.2619
    112  O        122.7690  240.1250  324.7080 O.2   285  TYR285     -0.2715
    113  CB       119.8660  239.3110  323.7480 C.3   285  TYR285      0.0574
    114  CG       118.4210  239.3730  323.3600 C.ar  285  TYR285     -0.0198
    115  CD1      117.9780  238.7860  322.1800 C.ar  285  TYR285     -0.0009
    116  CD2      117.4930  239.9880  324.1730 C.ar  285  TYR285     -0.0009
    117  CE1      116.6450  238.8200  321.8260 C.ar  285  TYR285      0.0417
    118  CE2      116.1650  240.0210  323.8430 C.ar  285  TYR285      0.0417
    119  CZ       115.7430  239.4390  322.6580 C.ar  285  TYR285      0.1957
    120  OH       114.4130  239.4730  322.3300 O.3   285  TYR285     -0.2866
    121  N        121.1960  241.0870  326.0150 N.am  286  MET286     -0.1977
    122  CA       121.7530  240.6610  327.2860 C.3   286  MET286      0.1605
    123  C        120.9810  239.4190  327.7110 C.2   286  MET286      0.2287
    124  O        119.7550  239.3660  327.5740 O.2   286  MET286     -0.2864
    125  CB       121.6510  241.7930  328.3150 C.3   286  MET286      0.0413
    126  CG       122.3780  241.5130  329.6390 C.3   286  MET286      0.0598
    127  SD       122.5380  242.9650  330.7030 S.3   286  MET286     -0.1393
    128  CE       120.8160  243.3120  331.0890 C.3   286  MET286      0.0692
    129  N        117.5020  239.5200  329.4790 N.3   289  GLU289     -0.1245
    130  CA       116.2820  239.9910  328.8330 C.3   289  GLU289      0.1567
    131  C        115.4020  238.8180  328.4410 C.2   289  GLU289      0.2260
    132  O        114.1730  238.8950  328.5390 O.2   289  GLU289     -0.2867
    133  CB       116.6140  240.8370  327.6110 C.3   289  GLU289      0.0388
    134  CG       117.3830  242.0800  327.9360 C.3   289  GLU289      0.1160
    135  CD       117.6970  242.8820  326.6910 C.2   289  GLU289      0.3649
    136  OE1      116.8060  243.6310  326.2450 O.co2 289  GLU289     -0.2457
    137  OE2      118.8260  242.7630  326.1660 O.co2 289  GLU289     -0.2457
    138  N        113.1830  237.8750  332.0920 N.3   293  ARG293     -0.1231
    139  CA       111.9710  238.6360  331.8170 C.3   293  ARG293      0.1694
    140  C        111.0340  237.9080  330.8550 C.2   293  ARG293      0.2592
    141  O        109.8630  237.6840  331.1790 O.2   293  ARG293     -0.2718
    142  CB       112.3590  240.0130  331.2600 C.3   293  ARG293      0.0321
    143  CG       113.3970  240.7800  332.1020 C.3   293  ARG293      0.0489
    144  CD       112.8950  241.0170  333.5660 C.3   293  ARG293      0.2205
    145  NE       111.5080  241.5000  333.5740 N.pl3 293  ARG293     -0.0865
    146  CZ       111.1320  242.7410  333.2480 C.cat 293  ARG293      0.5346
    147  NH1      112.0410  243.6580  332.8990 N.pl3 293  ARG293      0.1354
    148  NH2      109.8460  243.0680  333.2750 N.pl3 293  ARG293      0.1354
    149  N        111.5410  237.5370  329.6730 N.am  294  ASP294     -0.1974
    150  CA       110.7130  236.8670  328.6710 C.3   294  ASP294      0.1709
    151  C        110.2250  235.5030  329.1550 C.2   294  ASP294      0.2293
    152  O        109.0490  235.1620  328.9890 O.2   294  ASP294     -0.2864
    153  CB       111.4960  236.7250  327.3630 C.3   294  ASP294      0.1436
    154  CG       111.8910  238.0700  326.7680 C.2   294  ASP294      0.3671
    155  OD1      111.1080  239.0370  326.9030 O.co2 294  ASP294     -0.2456
    156  OD2      112.9840  238.1640  326.1640 O.co2 294  ASP294     -0.2456
    157  N        108.8240  236.0830  333.7190 N.3   297  ASP297     -0.1239
    158  CA       107.7670  236.9590  334.2030 C.3   297  ASP297      0.1674
    159  C        106.4720  236.1690  334.3230 C.2   297  ASP297      0.2266
    160  O        106.2440  235.1970  333.5970 O.2   297  ASP297     -0.2867
    161  CB       107.5620  238.1480  333.2660 C.3   297  ASP297      0.1410
    162  CG       108.4690  239.3200  333.5880 C.2   297  ASP297      0.3668
    163  OD1      109.3940  239.1710  334.4200 O.co2 297  ASP297     -0.2456
    164  OD2      108.2440  240.4040  333.0070 O.co2 297  ASP297     -0.2456
    165  N        103.5380  237.4930  333.6320 N.3   299  SER299     -0.1202
    166  CA       102.7790  237.9280  332.4620 C.3   299  SER299      0.2020
    167  C        103.4250  237.5330  331.1330 C.2   299  SER299      0.2618
    168  O        103.0020  238.0460  330.0880 O.2   299  SER299     -0.2717
    169  CB       102.5880  239.4470  332.4980 C.3   299  SER299      0.2103
    170  OG       102.8560  239.9560  333.7920 O.3   299  SER299     -0.2182
    171  N        104.4310  236.6520  331.1460 N.am  300  ARG300     -0.1979
    172  CA       105.0790  236.1900  329.9210 C.3   300  ARG300      0.1597
    173  C        105.0280  234.6680  329.8150 C.2   300  ARG300      0.2287
    174  O        103.9810  234.0600  330.0550 O.2   300  ARG300     -0.2864
    175  CB       106.5260  236.6850  329.8650 C.3   300  ARG300      0.0334
    176  CG       106.6700  238.1950  329.9210 C.3   300  ARG300      0.0492
    177  CD       105.9940  238.8570  328.7480 C.3   300  ARG300      0.2205
    178  NE       106.6180  238.4660  327.4830 N.pl3 300  ARG300     -0.0865
    179  CZ       107.8000  238.9070  327.0690 C.cat 300  ARG300      0.5346
    180  NH1      108.4850  239.7560  327.8180 N.pl3 300  ARG300      0.1354
    181  NH2      108.3040  238.5050  325.9110 N.pl3 300  ARG300      0.1354
    182  N        116.5840  250.9160  335.5390 N.3   375  TRP375     -0.1241
    183  CA       116.6580  250.1160  334.3240 C.3   375  TRP375      0.1605
    184  C        118.0510  249.5440  334.0680 C.2   375  TRP375      0.2264
    185  O        118.1570  248.4610  333.4830 O.2   375  TRP375     -0.2867
    186  CB       116.2000  250.9590  333.1100 C.3   375  TRP375      0.0550
    187  CG       114.6870  250.9530  332.8710 C.ar  375  TRP375      0.0003
    188  CD1      113.7110  251.4660  333.6790 C.ar  375  TRP375      0.0946
    189  CD2      114.0070  250.4250  331.7100 C.ar  375  TRP375      0.0152
    190  NE1      112.4590  251.2620  333.1020 N.ar  375  TRP375     -0.2442
    191  CE2      112.6230  250.6310  331.8970 C.ar  375  TRP375      0.0810
    192  CE3      114.4410  249.7880  330.5360 C.ar  375  TRP375      0.0012
    193  CZ2      111.6720  250.2280  330.9560 C.ar  375  TRP375      0.0191
    194  CZ3      113.4920  249.3830  329.5980 C.ar  375  TRP375      0.0001
    195  CH2      112.1240  249.6070  329.8160 C.ar  375  TRP375      0.0015
@<TRIPOS>BOND
     1    90    89    1
     2    74    75    1
     3    89    86    1
     4    75    76    1
     5    75    78    1
     6    12    11    2
     7    85    76   am
     8    85    86    1
     9    11    10    1
    10    76    77    2
    11    21    20    2
    12    88    87    2
    13    78    79    1
    14    86    87    1
    15    18    19    1
    16    70    69    2
    17    87    91   am
    18    52    49    1
    19    52    53    1
    20    10     9    1
    21    10    13    1
    22    69    68    1
    23    20    19    1
    24    94    93    2
    25    79    81   ar
    26    79    80   ar
    27    81    83   ar
    28    19    22    1
    29    49    50    1
    30    49    48    1
    31    91    92    1
    32    53    55   ar
    33    53    54   ar
    34    67    68    1
    35    63    62    2
    36    50    51    2
    37    92    93    1
    38    62    61    1
    39   107   105   ar
    40   107   108   ar
    41    13    14    1
    42    22    23    1
    43    55    57   ar
    44    54    56   ar
    45    60    61    1
    46    60    66    1
    47    93    95   am
    48    68    71    1
    49   105   102   ar
    50    37    36    2
    51    80    82   ar
    52    83    84   ar
    53    48    36   am
    54    23    24    1
    55    61    64    1
    56    66    65    1
    57    57    58   ar
    58    56    58   ar
    59    36    35    1
    60   108   106   ar
    61    95    96    1
    62    58    59    1
    63    71    72    1
    64    71    73    1
    65    14    15    1
    66    99    96    1
    67    99   100    1
    68   102   100   ar
    69   102   104   ar
    70    82    84   ar
    71    24    25    1
    72    96    97    1
    73    65    64    1
    74    16    15    2
    75   100   101   ar
    76    35    34    1
    77    35    38    1
    78   106   104   ar
    79    15    17   am
    80   104   103   ar
    81   117   115   ar
    82   117   119   ar
    83    25    26    2
    84    97   109   am
    85    97    98    2
    86   115   114   ar
    87    40    39   ar
    88    40    42   ar
    89    38    39    1
    90   120   119    1
    91   101   103   ar
    92   109   110    1
    93    39    41   ar
    94    42    43   ar
    95   119   118   ar
    96    27    26    1
    97    26    28    1
    98    41    43   ar
    99    41    44   ar
   100    43    45   ar
   101   114   113    1
   102   114   116   ar
   103    44    46   ar
   104    45    47   ar
   105   110   113    1
   106   110   111    1
   107   118   116   ar
   108    46    47   ar
   109    32    31    2
   110    31    30    1
   111   112   111    2
   112   111   121   am
   113   181   179    1
   114    30    33    1
   115    30    29    1
   116   121   122    1
   117   156   154   ar
   118   137   135   ar
   119   136   135   ar
   120   135   134    1
   121   154   155   ar
   122   154   153    1
   123   179   178    2
   124   179   180    1
   125   122   123    1
   126   122   125    1
   127   153   150    1
   128   178   177    1
   129   124   123    2
   130   133   134    1
   131   133   130    1
   132   125   126    1
   133   131   132    2
   134   131   130    1
   135   150   151    1
   136   150   149    1
   137   177   176    1
   138   130   129    1
   139   152   151    2
   140   194   195   ar
   141   194   192   ar
   142   126   127    1
   143   149   140   am
   144   173   172    1
   145   173   174    2
   146   195   193   ar
   147   175   172    1
   148   175   176    1
   149   172   171    1
   150   168   167    2
   151   192   189   ar
   152   127   128    1
   153   140   141    2
   154   140   139    1
   155   193   191   ar
   156   167   171   am
   157   167   166    1
   158   142   139    1
   159   142   143    1
   160     7     6    1
   161     7     8    1
   162     4     3    2
   163     6     5    1
   164   189   191   ar
   165   189   187   ar
   166   139   138    1
   167   191   190   ar
   168   143   144    1
   169     3     2    1
   170   166   169    1
   171   166   165    1
   172   169   170    1
   173   187   186    1
   174   187   188   ar
   175   147   146    1
   176   164   162   ar
   177   190   188   ar
   178   186   183    1
   179     5     2    1
   180   146   148    1
   181   146   145    2
   182   161   162    1
   183   161   158    1
   184   185   184    2
   185     2     1    1
   186   144   145    1
   187   162   163   ar
   188   160   159    2
   189   157   158    1
   190   184   183    1
   191   158   159    1
   192   183   182    1
