@<TRIPOS>MOLECULE
tmp/6nhdA02.pdb
 173 170 0 0 0
SMALL
GASTEIGER

@<TRIPOS>ATOM
      1  N          2.3200    8.8100   34.7210 N.3    38  MET38      -0.1230
      2  CA         2.7290    8.2300   33.4390 C.3    38  MET38       0.1702
      3  C          2.7690    9.2700   32.3140 C.2    38  MET38       0.2592
      4  O          3.6990    9.2700   31.4990 O.2    38  MET38      -0.2718
      5  CB         1.7930    7.0760   33.0720 C.3    38  MET38       0.0401
      6  CG         2.0000    6.5450   31.6620 C.3    38  MET38       0.0596
      7  SD         3.2090    5.2110   31.5990 S.3    38  MET38      -0.1393
      8  CE         2.2760    3.8890   32.3830 C.3    38  MET38       0.0692
      9  N          1.7900   10.1740   32.2650 N.am   39  LEU39      -0.1980
     10  CA         1.6330   11.0980   31.1380 C.3    39  LEU39       0.1596
     11  C          1.1050   12.4420   31.6200 C.2    39  LEU39       0.2287
     12  O         -0.0640   12.7800   31.4000 O.2    39  LEU39      -0.2864
     13  CB         0.6760   10.5190   30.0940 C.3    39  LEU39       0.0297
     14  CG         0.8710    9.1570   29.4100 C.3    39  LEU39       0.0022
     15  CD1       -0.4420    8.6020   28.8330 C.3    39  LEU39       0.0001
     16  CD2        1.9110    9.2370   28.3060 C.3    39  LEU39       0.0001
     17  N         15.1180    7.6530   28.7960 N.3   115  CYS115     -0.1235
     18  CA        15.8160    6.6460   27.9960 C.3   115  CYS115      0.1677
     19  C         17.1650    6.3650   28.6410 C.2   115  CYS115      0.2270
     20  O         17.9630    7.2870   28.8490 O.2   115  CYS115     -0.2867
     21  CB        16.0060    7.1000   26.5400 C.3   115  CYS115      0.0956
     22  SG        17.0710    6.0020   25.5710 S.3   115  CYS115     -0.0801
     23  N          4.3720    0.3220   18.0470 N.3   178  GLN178     -0.1245
     24  CA         5.6900   -0.0950   17.5920 C.3   178  GLN178      0.1566
     25  C          5.5450   -0.7210   16.2150 C.2   178  GLN178      0.2260
     26  O          4.5010   -1.2940   15.8920 O.2   178  GLN178     -0.2867
     27  CB         6.3480   -1.0940   18.5590 C.3   178  GLN178      0.0367
     28  CG         6.5820   -0.5540   19.9730 C.3   178  GLN178      0.0905
     29  CD         7.0510   -1.6300   20.9340 C.2   178  GLN178      0.2608
     30  OE1        8.1350   -2.1900   20.7750 O.2   178  GLN178     -0.2717
     31  NE2        6.2240   -1.9370   21.9270 N.am  178  GLN178     -0.0878
     32  N         13.1680   -3.2690   18.5830 N.3   265  PRO265     -0.2116
     33  CA        12.2320   -2.3500   19.2400 C.3   265  PRO265      0.1372
     34  C         12.2060   -1.0450   18.4580 C.2   265  PRO265      0.2244
     35  O         13.2420   -0.4130   18.2560 O.2   265  PRO265     -0.2868
     36  CB        12.8270   -2.1730   20.6500 C.3   265  PRO265      0.0268
     37  CG        14.3460   -2.2570   20.4200 C.3   265  PRO265      0.0207
     38  CD        14.5250   -3.1720   19.1470 C.3   265  PRO265      0.0892
     39  N          9.8150    2.3420   18.1440 N.3   267  VAL267     -0.1245
     40  CA         8.6480    3.0720   18.6060 C.3   267  VAL267      0.1561
     41  C          8.1110    3.9320   17.4770 C.2   267  VAL267      0.2260
     42  O          8.8610    4.6750   16.8310 O.2   267  VAL267     -0.2867
     43  CB         8.9960    3.9140   19.8450 C.3   267  VAL267      0.0252
     44  CG1        7.9080    4.9490   20.1180 C.3   267  VAL267      0.0019
     45  CG2        9.1940    2.9810   21.0340 C.3   267  VAL267      0.0019
     46  N          4.7450    5.7620   17.5960 N.3   269  ASN269     -0.1225
     47  CA         3.5550    6.5670   17.8460 C.3   269  ASN269      0.1785
     48  C          3.8580    7.8730   18.5740 C.2   269  ASN269      0.2597
     49  O          2.9470    8.4860   19.1300 O.2   269  ASN269     -0.2718
     50  CB         2.5170    5.7590   18.6230 C.3   269  ASN269      0.1169
     51  CG         2.9570    5.4470   20.0360 C.2   269  ASN269      0.2627
     52  OD1        4.1110    5.6720   20.4120 O.2   269  ASN269     -0.2716
     53  ND2        2.0420    4.8920   20.8210 N.am  269  ASN269     -0.0877
     54  N          5.1020    8.3250   18.5730 N.am  270  MET270     -0.1979
     55  CA         5.4330    9.5480   19.2760 C.3   270  MET270      0.1605
     56  C          5.6020   10.7080   18.3030 C.2   270  MET270      0.2287
     57  O          5.4390   10.5690   17.0930 O.2   270  MET270     -0.2864
     58  CB         6.6610    9.3300   20.1460 C.3   270  MET270      0.0413
     59  CG         6.2600    8.5350   21.3710 C.3   270  MET270      0.0598
     60  SD         7.4870    8.5620   22.6470 S.3   270  MET270     -0.1393
     61  CE         7.1640   10.1510   23.4010 C.3   270  MET270      0.0692
     62  N         11.2540    5.3060   15.2770 N.3   284  PHE284     -0.1227
     63  CA        12.6660    5.2230   15.6250 C.3   284  PHE284      0.1736
     64  C         12.9400    3.9010   16.3300 C.2   284  PHE284      0.2596
     65  O         12.0500    3.2900   16.9200 O.2   284  PHE284     -0.2718
     66  CB        13.1050    6.4220   16.4990 C.3   284  PHE284      0.0547
     67  CG        12.3400    6.5430   17.7840 C.ar  284  PHE284     -0.0202
     68  CD1       12.6860    5.7680   18.8860 C.ar  284  PHE284     -0.0042
     69  CD2       11.2730    7.4220   17.8880 C.ar  284  PHE284     -0.0042
     70  CE1       11.9960    5.8960   20.1000 C.ar  284  PHE284     -0.0003
     71  CE2       10.5620    7.5340   19.0770 C.ar  284  PHE284     -0.0003
     72  CZ        10.9390    6.7740   20.1960 C.ar  284  PHE284     -0.0000
     73  N         14.1850    3.4480   16.2570 N.am  285  SER285     -0.1938
     74  CA        14.4710    2.1070   16.7200 C.3   285  SER285      0.2055
     75  C         15.8980    2.0320   17.2350 C.2   285  SER285      0.2644
     76  O         16.7550    2.8460   16.8920 O.2   285  SER285     -0.2714
     77  CB        14.2350    1.0610   15.5890 C.3   285  SER285      0.2130
     78  OG        15.1330    1.2130   14.4880 O.3   285  SER285     -0.2179
     79  N         16.1430    1.0190   18.0610 N.am  286  GLY286     -0.1939
     80  CA        17.4820    0.7150   18.5240 C.3   286  GLY286      0.2014
     81  C         17.6110   -0.7820   18.7080 C.2   286  GLY286      0.2639
     82  O         17.4580   -1.5500   17.7530 O.2   286  GLY286     -0.2714
     83  N         17.8740   -1.1960   19.9450 N.am  287  TRP287     -0.1959
     84  CA        18.0180   -2.5910   20.3300 C.3   287  TRP287      0.1771
     85  C         17.5840   -2.7250   21.7900 C.2   287  TRP287      0.2620
     86  O         17.7050   -1.7790   22.5780 O.2   287  TRP287     -0.2715
     87  CB        19.4620   -3.0750   20.1550 C.3   287  TRP287      0.0590
     88  CG        20.4690   -2.2820   20.9510 C.ar  287  TRP287      0.0006
     89  CD1       20.7320   -2.3980   22.2880 C.ar  287  TRP287      0.0946
     90  CD2       21.3540   -1.2640   20.4550 C.ar  287  TRP287      0.0152
     91  NE1       21.7180   -1.5150   22.6520 N.ar  287  TRP287     -0.2442
     92  CE2       22.1140   -0.8040   21.5510 C.ar  287  TRP287      0.0810
     93  CE3       21.5790   -0.6960   19.1890 C.ar  287  TRP287      0.0012
     94  CZ2       23.0830    0.1900   21.4230 C.ar  287  TRP287      0.0191
     95  CZ3       22.5390    0.3010   19.0670 C.ar  287  TRP287      0.0001
     96  CH2       23.2810    0.7280   20.1740 C.ar  287  TRP287      0.0015
     97  N         17.1200   -3.9210   22.1530 N.am  288  TYR288     -0.1960
     98  CA        16.4430   -4.1110   23.4300 C.3   288  TYR288      0.1771
     99  C         17.4140   -4.1250   24.6060 C.2   288  TYR288      0.2619
    100  O         18.5590   -4.5740   24.5060 O.2   288  TYR288     -0.2715
    101  CB        15.6780   -5.4210   23.4520 C.3   288  TYR288      0.0574
    102  CG        14.2340   -5.3530   23.0610 C.ar  288  TYR288     -0.0198
    103  CD1       13.7750   -6.0550   21.9440 C.ar  288  TYR288     -0.0009
    104  CD2       13.3160   -4.6120   23.7940 C.ar  288  TYR288     -0.0009
    105  CE1       12.4490   -6.0310   21.5860 C.ar  288  TYR288      0.0417
    106  CE2       11.9650   -4.5720   23.4270 C.ar  288  TYR288      0.0417
    107  CZ        11.5490   -5.2920   22.3130 C.ar  288  TYR288      0.1957
    108  OH        10.2340   -5.3050   21.9000 O.3   288  TYR288     -0.2866
    109  N         16.9300   -3.6540   25.7470 N.am  289  MET289     -0.1977
    110  CA        17.4870   -4.0820   27.0220 C.3   289  MET289      0.1605
    111  C         16.7480   -5.3590   27.4040 C.2   289  MET289      0.2287
    112  O         15.5380   -5.4660   27.1860 O.2   289  MET289     -0.2864
    113  CB        17.3240   -2.9910   28.0910 C.3   289  MET289      0.0413
    114  CG        18.0710   -3.2930   29.4080 C.3   289  MET289      0.0598
    115  SD        18.1640   -1.8430   30.4790 S.3   289  MET289     -0.1393
    116  CE        16.4310   -1.5390   30.7640 C.3   289  MET289      0.0692
    117  N         13.1530   -5.3920   29.1680 N.3   292  GLU292     -0.1245
    118  CA        11.9520   -4.9330   28.4760 C.3   292  GLU292      0.1567
    119  C         11.1270   -6.0960   27.9630 C.2   292  GLU292      0.2260
    120  O          9.8930   -6.0520   27.9940 O.2   292  GLU292     -0.2867
    121  CB        12.3250   -4.0400   27.3050 C.3   292  GLU292      0.0388
    122  CG        12.9830   -2.7500   27.7010 C.3   292  GLU292      0.1160
    123  CD        13.2200   -1.8830   26.4860 C.2   292  GLU292      0.3649
    124  OE1       12.2870   -1.1320   26.1120 O.co2 292  GLU292     -0.2457
    125  OE2       14.3290   -1.9750   25.9130 O.co2 292  GLU292     -0.2457
    126  N          8.9660   -7.1560   31.5650 N.3   296  ARG296     -0.1245
    127  CA         7.7390   -6.4350   31.2520 C.3   296  ARG296      0.1563
    128  C          6.8600   -7.2240   30.2770 C.2   296  ARG296      0.2260
    129  O          5.7370   -7.6070   30.6230 O.2   296  ARG296     -0.2867
    130  CB         8.0870   -5.0500   30.6860 C.3   296  ARG296      0.0307
    131  CG         8.9250   -4.1150   31.6110 C.3   296  ARG296      0.0489
    132  CD         8.3280   -3.9560   33.0420 C.3   296  ARG296      0.2205
    133  NE         6.9100   -3.6100   33.0090 N.pl3 296  ARG296     -0.0865
    134  CZ         6.4400   -2.3930   32.7310 C.cat 296  ARG296      0.5346
    135  NH1        7.2840   -1.3920   32.4860 N.pl3 296  ARG296      0.1354
    136  NH2        5.1240   -2.1810   32.6950 N.pl3 296  ARG296      0.1354
    137  N         12.0270    5.9030   35.4030 N.3   378  TRP378     -0.1241
    138  CA        12.1290    5.0910   34.1970 C.3   378  TRP378      0.1605
    139  C         13.5250    4.5530   33.9310 C.2   378  TRP378      0.2264
    140  O         13.6490    3.5370   33.2420 O.2   378  TRP378     -0.2867
    141  CB        11.6550    5.8800   32.9670 C.3   378  TRP378      0.0550
    142  CG        10.1890    6.1570   33.0090 C.ar  378  TRP378      0.0003
    143  CD1        9.4940    6.8400   33.9930 C.ar  378  TRP378      0.0946
    144  CD2        9.2190    5.7540   32.0380 C.ar  378  TRP378      0.0152
    145  NE1        8.1560    6.8750   33.6780 N.ar  378  TRP378     -0.2442
    146  CE2        7.9610    6.2190   32.4850 C.ar  378  TRP378      0.0810
    147  CE3        9.2900    5.0420   30.8350 C.ar  378  TRP378      0.0012
    148  CZ2        6.7860    6.0000   31.7580 C.ar  378  TRP378      0.0191
    149  CZ3        8.1250    4.8310   30.1130 C.ar  378  TRP378      0.0001
    150  CH2        6.8900    5.3040   30.5830 C.ar  378  TRP378      0.0015
    151  N         11.0640   14.2200   22.0120 N.3   404  PHE404     -0.1241
    152  CA         9.9840   13.3000   21.6960 C.3   404  PHE404      0.1605
    153  C          8.8620   13.5050   22.7000 C.2   404  PHE404      0.2264
    154  O          9.1110   13.6190   23.8960 O.2   404  PHE404     -0.2867
    155  CB        10.4680   11.8460   21.7190 C.3   404  PHE404      0.0534
    156  CG        11.4710   11.5330   20.6470 C.ar  404  PHE404     -0.0203
    157  CD1       12.8180   11.4220   20.9510 C.ar  404  PHE404     -0.0042
    158  CD2       11.0690   11.3650   19.3300 C.ar  404  PHE404     -0.0042
    159  CE1       13.7520   11.1310   19.9700 C.ar  404  PHE404     -0.0003
    160  CE2       11.9970   11.0990   18.3320 C.ar  404  PHE404     -0.0003
    161  CZ        13.3380   10.9760   18.6480 C.ar  404  PHE404     -0.0000
    162  N          4.4700   12.5490   23.5740 N.3   406  TYR406     -0.1241
    163  CA         3.3420   11.6880   23.2640 C.3   406  TYR406      0.1605
    164  C          2.2980   12.4580   22.4560 C.2   406  TYR406      0.2264
    165  O          2.2780   13.6930   22.4270 O.2   406  TYR406     -0.2867
    166  CB         2.7180   11.1290   24.5500 C.3   406  TYR406      0.0534
    167  CG         3.5850   10.1110   25.2830 C.ar  406  TYR406     -0.0201
    168  CD1        4.4030   10.4950   26.3470 C.ar  406  TYR406     -0.0009
    169  CD2        3.5770    8.7670   24.9170 C.ar  406  TYR406     -0.0009
    170  CE1        5.1910    9.5660   27.0270 C.ar  406  TYR406      0.0417
    171  CE2        4.3640    7.8300   25.5880 C.ar  406  TYR406      0.0417
    172  CZ         5.1670    8.2340   26.6410 C.ar  406  TYR406      0.1957
    173  OH         5.9450    7.3020   27.3010 O.3   406  TYR406     -0.2866
@<TRIPOS>BOND
     1    78    77    1
     2    62    63    1
     3    77    74    1
     4    63    64    1
     5    63    66    1
     6    26    25    2
     7    25    24    1
     8    73    64   am
     9    73    74    1
    10    64    65    2
    11    66    67    1
    12    74    75    1
    13    42    41    2
    14    76    75    2
    15    57    56    2
    16    75    79   am
    17    41    40    1
    18    24    23    1
    19    24    27    1
    20    46    47    1
    21    82    81    2
    22    67    69   ar
    23    67    68   ar
    24    47    48    1
    25    47    50    1
    26    69    71   ar
    27    79    80    1
    28    39    40    1
    29    35    34    2
    30    56    55    1
    31   160   161   ar
    32   160   158   ar
    33    34    33    1
    34    80    81    1
    35    27    28    1
    36    54    48   am
    37    54    55    1
    38    48    49    2
    39    32    38    1
    40    32    33    1
    41    40    43    1
    42    50    51    1
    43   161   159   ar
    44    81    83   am
    45    68    70   ar
    46    95    93   ar
    47    95    96   ar
    48    71    72   ar
    49    38    37    1
    50    93    90   ar
    51    33    36    1
    52    55    58    1
    53   158   156   ar
    54    43    44    1
    55    43    45    1
    56    83    84    1
    57   159   157   ar
    58    28    29    1
    59    51    52    2
    60    51    53   am
    61    70    72   ar
    62    58    59    1
    63    87    84    1
    64    87    88    1
    65    96    94   ar
    66    84    85    1
    67    37    36    1
    68    90    88   ar
    69    90    92   ar
    70   156   157   ar
    71   156   155    1
    72    30    29    2
    73    29    31   am
    74    88    89   ar
    75    59    60    1
    76    94    92   ar
    77    92    91   ar
    78   105   103   ar
    79   105   107   ar
    80   152   155    1
    81   152   151    1
    82   152   153    1
    83    85    97   am
    84    85    86    2
    85   108   107    1
    86   103   102   ar
    87    97    98    1
    88    89    91   ar
    89   107   106   ar
    90   165   164    2
    91   164   163    1
    92    60    61    1
    93   153   154    2
    94   102   101    1
    95   102   104   ar
    96   163   162    1
    97   163   166    1
    98   106   104   ar
    99    98   101    1
   100    98    99    1
   101   100    99    2
   102   166   167    1
   103    99   109   am
   104   169   167   ar
   105   169   171   ar
   106   167   168   ar
   107    22    21    1
   108   171   172   ar
   109   109   110    1
   110   125   123   ar
   111   124   123   ar
   112   168   170   ar
   113   123   122    1
   114    21    18    1
   115   172   170   ar
   116   172   173    1
   117   110   111    1
   118   110   113    1
   119   112   111    2
   120   121   122    1
   121   121   118    1
   122   119   120    2
   123   119   118    1
   124    18    19    1
   125    18    17    1
   126   113   114    1
   127    16    14    1
   128   118   117    1
   129    19    20    2
   130    15    14    1
   131   114   115    1
   132    14    13    1
   133    13    10    1
   134   149   150   ar
   135   149   147   ar
   136   128   129    2
   137   128   127    1
   138   115   116    1
   139   150   148   ar
   140   130   127    1
   141   130   131    1
   142   147   144   ar
   143    10    11    1
   144    10     9    1
   145   127   126    1
   146    12    11    2
   147     4     3    2
   148     7     6    1
   149     7     8    1
   150   131   132    1
   151     6     5    1
   152   148   146   ar
   153   144   146   ar
   154   144   142   ar
   155     9     3   am
   156     3     2    1
   157   146   145   ar
   158   135   134    1
   159   136   134    1
   160   134   133    2
   161   141   142    1
   162   141   138    1
   163   142   143   ar
   164   133   132    1
   165     5     2    1
   166   140   139    2
   167     2     1    1
   168   145   143   ar
   169   139   138    1
   170   138   137    1
