@<TRIPOS>MOLECULE
tmp/6nhfB03.pdb
 159 158 0 0 0
SMALL
GASTEIGER

@<TRIPOS>ATOM
      1  N         75.6310   22.8450 -161.9740 N.3    38  VAL38      -0.1231
      2  CA        75.7520   21.5230 -161.3550 C.3    38  VAL38       0.1692
      3  C         75.5190   21.6240 -159.8490 C.2    38  VAL38       0.2592
      4  O         74.7480   20.8550 -159.2660 O.2    38  VAL38      -0.2718
      5  CB        77.1200   20.8860 -161.6700 C.3    38  VAL38       0.0266
      6  CG1       77.2770   19.5550 -160.9080 C.3    38  VAL38       0.0020
      7  CG2       77.2750   20.6270 -163.1780 C.3    38  VAL38       0.0020
      8  N         76.1680   22.5770 -159.2060 N.am   39  PHE39      -0.1976
      9  CA        75.9710   22.7880 -157.7780 C.3    39  PHE39       0.1639
     10  C         75.1530   24.0480 -157.5510 C.2    39  PHE39       0.2290
     11  O         75.6760   25.1600 -157.7080 O.2    39  PHE39      -0.2864
     12  CB        77.3240   22.8810 -157.0820 C.3    39  PHE39       0.0560
     13  CG        78.0910   21.6150 -157.1540 C.ar   39  PHE39      -0.0200
     14  CD1       77.5890   20.4660 -156.5740 C.ar   39  PHE39      -0.0042
     15  CD2       79.2860   21.5500 -157.8320 C.ar   39  PHE39      -0.0042
     16  CE1       78.2770   19.2680 -156.6560 C.ar   39  PHE39      -0.0003
     17  CE2       79.9810   20.3690 -157.9120 C.ar   39  PHE39      -0.0003
     18  CZ        79.4740   19.2180 -157.3210 C.ar   39  PHE39      -0.0000
     19  N         67.4010   12.0300 -160.8090 N.3   106  CYS106     -0.1235
     20  CA        67.4590   10.5810 -160.9820 C.3   106  CYS106      0.1677
     21  C         66.3820   10.1080 -161.9550 C.2   106  CYS106      0.2270
     22  O         65.1840   10.2340 -161.6810 O.2   106  CYS106     -0.2867
     23  CB        67.3100    9.8560 -159.6380 C.3   106  CYS106      0.0956
     24  SG        67.4740    8.0630 -159.8330 S.3   106  CYS106     -0.0801
     25  N         84.2280    9.1670 -153.8600 N.3   168  SER168     -0.1202
     26  CA        82.9440    9.6200 -154.3930 C.3   168  SER168      0.2020
     27  C         82.0340    8.4500 -154.7440 C.2   168  SER168      0.2618
     28  O         80.8040    8.5870 -154.7040 O.2   168  SER168     -0.2717
     29  CB        83.1580   10.5150 -155.6180 C.3   168  SER168      0.2103
     30  OG        83.8180    9.7880 -156.6270 O.3   168  SER168     -0.2182
     31  N         82.6120    7.3070 -155.1210 N.am  169  GLN169     -0.1979
     32  CA        81.8670    6.0690 -155.2890 C.3   169  GLN169      0.1601
     33  C         82.6710    4.9580 -154.6380 C.2   169  GLN169      0.2287
     34  O         83.8850    5.0750 -154.4630 O.2   169  GLN169     -0.2864
     35  CB        81.6070    5.6840 -156.7730 C.3   169  GLN169      0.0394
     36  CG        80.8280    6.7330 -157.5810 C.3   169  GLN169      0.0908
     37  CD        80.5150    6.2650 -159.0310 C.2   169  GLN169      0.2608
     38  OE1       80.4900    5.0560 -159.3370 O.2   169  GLN169     -0.2717
     39  NE2       80.2560    7.2200 -159.9030 N.am  169  GLN169     -0.0878
     40  N         77.2920    0.9270 -159.7290 N.3   256  PRO256     -0.2116
     41  CA        77.3830    2.3660 -159.4350 C.3   256  PRO256      0.1372
     42  C         76.9250    2.6130 -158.0030 C.2   256  PRO256      0.2244
     43  O         75.7510    2.4180 -157.6760 O.2   256  PRO256     -0.2868
     44  CB        76.4230    2.9890 -160.4590 C.3   256  PRO256      0.0268
     45  CG        75.3640    1.9360 -160.6580 C.3   256  PRO256      0.0207
     46  CD        76.0420    0.5700 -160.4230 C.3   256  PRO256      0.0892
     47  N         77.1850    5.4740 -155.1330 N.3   258  VAL258     -0.1245
     48  CA        77.5690    6.8280 -154.7420 C.3   258  VAL258      0.1561
     49  C         77.7800    6.8650 -153.2400 C.2   258  VAL258      0.2260
     50  O         76.9080    6.4380 -152.4810 O.2   258  VAL258     -0.2867
     51  CB        76.4920    7.8270 -155.1720 C.3   258  VAL258      0.0252
     52  CG1       76.8030    9.2410 -154.6090 C.3   258  VAL258      0.0019
     53  CG2       76.4320    7.8270 -156.6660 C.3   258  VAL258      0.0019
     54  N         79.4140    9.7480 -151.4760 N.3   260  ASN260     -0.1225
     55  CA        79.8010   11.0340 -150.9010 C.3   260  ASN260      0.1785
     56  C         78.6350   11.9940 -150.7040 C.2   260  ASN260      0.2597
     57  O         78.8740   13.1750 -150.4120 O.2   260  ASN260     -0.2718
     58  CB        80.8670   11.7010 -151.7760 C.3   260  ASN260      0.1169
     59  CG        80.3410   12.0470 -153.1480 C.2   260  ASN260      0.2627
     60  OD1       79.2160   11.6840 -153.5050 O.2   260  ASN260     -0.2716
     61  ND2       81.1490   12.7560 -153.9330 N.am  260  ASN260     -0.0877
     62  N         77.3970   11.5400 -150.8460 N.am  261  MET261     -0.1979
     63  CA        76.2560   12.4150 -150.6460 C.3   261  MET261      0.1605
     64  C         75.7390   12.3210 -149.2120 C.2   261  MET261      0.2287
     65  O         75.9520   11.3220 -148.5270 O.2   261  MET261     -0.2864
     66  CB        75.1520   12.0800 -151.6480 C.3   261  MET261      0.0413
     67  CG        75.6000   12.4770 -153.0690 C.3   261  MET261      0.0598
     68  SD        74.2440   12.4760 -154.2190 S.3   261  MET261     -0.1393
     69  CE        73.3890   13.9970 -153.7750 C.3   261  MET261      0.0692
     70  N         74.7340    4.6020 -151.5050 N.3   275  PHE275     -0.1227
     71  CA        73.6140    3.9230 -152.1380 C.3   275  PHE275      0.1736
     72  C         74.0380    3.4570 -153.5310 C.2   275  PHE275      0.2596
     73  O         74.9250    4.0490 -154.1430 O.2   275  PHE275     -0.2718
     74  CB        72.3740    4.8410 -152.2380 C.3   275  PHE275      0.0547
     75  CG        72.6420    6.1830 -152.8970 C.ar  275  PHE275     -0.0202
     76  CD1       72.5980    6.3170 -154.2970 C.ar  275  PHE275     -0.0042
     77  CD2       72.9010    7.3120 -152.1380 C.ar  275  PHE275     -0.0042
     78  CE1       72.8330    7.5360 -154.9060 C.ar  275  PHE275     -0.0003
     79  CE2       73.1420    8.5480 -152.7530 C.ar  275  PHE275     -0.0003
     80  CZ        73.0930    8.6560 -154.1390 C.ar  275  PHE275     -0.0000
     81  N         73.3860    2.4090 -154.0240 N.am  276  SER276     -0.1938
     82  CA        73.7340    1.8330 -155.3120 C.3   276  SER276      0.2055
     83  C         72.4880    1.3530 -156.0430 C.2   276  SER276      0.2644
     84  O         71.4690    1.0050 -155.4390 O.2   276  SER276     -0.2714
     85  CB        74.7210    0.6790 -155.1610 C.3   276  SER276      0.2130
     86  OG        74.2160   -0.2940 -154.2650 O.3   276  SER276     -0.2179
     87  N         72.5760    1.3700 -157.3680 N.am  277  GLY277     -0.1939
     88  CA        71.5360    0.7900 -158.1910 C.3   277  GLY277      0.2014
     89  C         72.1900   -0.0010 -159.3020 C.2   277  GLY277      0.2639
     90  O         73.0400   -0.8580 -159.0430 O.2   277  GLY277     -0.2714
     91  N         71.8050    0.2740 -160.5430 N.am  278  TRP278     -0.1959
     92  CA        72.4950   -0.2760 -161.6950 C.3   278  TRP278      0.1771
     93  C         72.6370    0.8440 -162.7120 C.2   278  TRP278      0.2620
     94  O         71.9620    1.8710 -162.6300 O.2   278  TRP278     -0.2715
     95  CB        71.7600   -1.4700 -162.3130 C.3   278  TRP278      0.0590
     96  CG        70.3270   -1.2340 -162.6300 C.ar  278  TRP278      0.0006
     97  CD1       69.7940   -0.6350 -163.7630 C.ar  278  TRP278      0.0946
     98  CD2       69.2210   -1.6470 -161.8360 C.ar  278  TRP278      0.0152
     99  NE1       68.4190   -0.6650 -163.6970 N.ar  278  TRP278     -0.2442
    100  CE2       68.0430   -1.2660 -162.5190 C.ar  278  TRP278      0.0810
    101  CE3       69.1130   -2.2820 -160.5840 C.ar  278  TRP278      0.0012
    102  CZ2       66.7770   -1.4950 -161.9990 C.ar  278  TRP278      0.0191
    103  CZ3       67.8520   -2.5280 -160.0720 C.ar  278  TRP278      0.0001
    104  CH2       66.6960   -2.1320 -160.7770 C.ar  278  TRP278      0.0015
    105  N         73.5490    0.6480 -163.6480 N.am  279  TYR279     -0.1960
    106  CA        73.8710    1.6830 -164.6190 C.3   279  TYR279      0.1771
    107  C         72.8260    1.8420 -165.7200 C.2   279  TYR279      0.2619
    108  O         72.1790    0.8860 -166.1510 O.2   279  TYR279     -0.2715
    109  CB        75.2050    1.3810 -165.2790 C.3   279  TYR279      0.0574
    110  CG        76.3800    2.0180 -164.6060 C.ar  279  TYR279     -0.0198
    111  CD1       76.5140    3.3940 -164.5740 C.ar  279  TYR279     -0.0009
    112  CD2       77.3840    1.2460 -164.0230 C.ar  279  TYR279     -0.0009
    113  CE1       77.6150    3.9910 -163.9960 C.ar  279  TYR279      0.0417
    114  CE2       78.4860    1.8360 -163.4320 C.ar  279  TYR279      0.0417
    115  CZ        78.5940    3.2090 -163.4280 C.ar  279  TYR279      0.1957
    116  OH        79.6840    3.8030 -162.8550 O.3   279  TYR279     -0.2866
    117  N         72.7060    3.0800 -166.2060 N.am  280  MET280     -0.1977
    118  CA        72.1920    3.3520 -167.5410 C.3   280  MET280      0.1605
    119  C         73.3810    3.4090 -168.4980 C.2   280  MET280      0.2287
    120  O         74.4200    4.0030 -168.1890 O.2   280  MET280     -0.2864
    121  CB        71.4020    4.6680 -167.5630 C.3   280  MET280      0.0413
    122  CG        70.8340    5.0310 -168.9420 C.3   280  MET280      0.0598
    123  SD        69.6220    6.3320 -168.7930 S.3   280  MET280     -0.1393
    124  CE        70.6990    7.7430 -168.5410 C.3   280  MET280      0.0692
    125  N         75.5910    6.4260 -169.1860 N.3   283  GLU283     -0.1245
    126  CA        76.5230    6.9050 -168.1680 C.3   283  GLU283      0.1567
    127  C         77.9240    6.4080 -168.4520 C.2   283  GLU283      0.2260
    128  O         78.8990    7.1430 -168.2960 O.2   283  GLU283     -0.2867
    129  CB        76.1130    6.4410 -166.7700 C.3   283  GLU283      0.0388
    130  CG        74.8280    7.0070 -166.2900 C.3   283  GLU283      0.1160
    131  CD        74.4590    6.4470 -164.9280 C.2   283  GLU283      0.3649
    132  OE1       74.9740    6.9600 -163.9000 O.co2 283  GLU283     -0.2457
    133  OE2       73.6660    5.4820 -164.8940 O.co2 283  GLU283     -0.2457
    134  N         69.2180   16.8690 -166.4760 N.3   369  TRP369     -0.1241
    135  CA        69.8030   15.6170 -166.0250 C.3   369  TRP369      0.1605
    136  C         68.9830   14.4050 -166.4350 C.2   369  TRP369      0.2264
    137  O         69.5440   13.3100 -166.5830 O.2   369  TRP369     -0.2867
    138  CB        69.9670   15.6520 -164.4900 C.3   369  TRP369      0.0550
    139  CG        71.1850   16.4370 -164.0770 C.ar  369  TRP369      0.0003
    140  CD1       71.3940   17.7700 -164.2450 C.ar  369  TRP369      0.0946
    141  CD2       72.3680   15.9200 -163.4400 C.ar  369  TRP369      0.0152
    142  NE1       72.6290   18.1210 -163.7530 N.ar  369  TRP369     -0.2442
    143  CE2       73.2450   17.0020 -163.2530 C.ar  369  TRP369      0.0810
    144  CE3       72.7530   14.6500 -162.9870 C.ar  369  TRP369      0.0012
    145  CZ2       74.4950   16.8590 -162.6370 C.ar  369  TRP369      0.0191
    146  CZ3       74.0020   14.5050 -162.3760 C.ar  369  TRP369      0.0001
    147  CH2       74.8540   15.6060 -162.2090 C.ar  369  TRP369      0.0015
    148  N         74.3560   17.2850 -151.8020 N.3   397  TYR397     -0.1241
    149  CA        75.8060   17.3430 -151.8970 C.3   397  TYR397      0.1605
    150  C         76.3870   17.8840 -150.5940 C.2   397  TYR397      0.2264
    151  O         75.7350   18.6320 -149.8700 O.2   397  TYR397     -0.2867
    152  CB        76.2500   18.2550 -153.0500 C.3   397  TYR397      0.0534
    153  CG        75.7940   17.7880 -154.4210 C.ar  397  TYR397     -0.0201
    154  CD1       76.0830   16.5130 -154.8760 C.ar  397  TYR397     -0.0009
    155  CD2       75.0860   18.6470 -155.2530 C.ar  397  TYR397     -0.0009
    156  CE1       75.6620   16.0940 -156.1310 C.ar  397  TYR397      0.0417
    157  CE2       74.6710   18.2470 -156.5050 C.ar  397  TYR397      0.0417
    158  CZ        74.9610   16.9770 -156.9410 C.ar  397  TYR397      0.1957
    159  OH        74.5360   16.6070 -158.1930 O.3   397  TYR397     -0.2866
@<TRIPOS>BOND
     1   125   126    1
     2   122   123    1
     3   122   121    1
     4   123   124    1
     5   119   120    2
     6   119   118    1
     7   127   128    2
     8   127   126    1
     9   126   129    1
    10   121   118    1
    11   118   117    1
    12   129   130    1
    13   137   136    2
    14   134   135    1
    15   136   135    1
    16   130   131    1
    17   117   107   am
    18   108   107    2
    19   135   138    1
    20   107   106    1
    21   109   106    1
    22   109   110    1
    23   131   133   ar
    24   131   132   ar
    25   106   105    1
    26   110   111   ar
    27   110   112   ar
    28   111   113   ar
    29   138   139    1
    30   140   139   ar
    31   140   142   ar
    32   139   141   ar
    33   112   114   ar
    34   113   115   ar
    35    97    99   ar
    36    97    96   ar
    37   142   143   ar
    38    99   100   ar
    39   105    93   am
    40   141   143   ar
    41   141   144   ar
    42   114   115   ar
    43   115   116    1
    44   143   145   ar
    45     7     5    1
    46   144   146   ar
    47    93    94    2
    48    93    92    1
    49   145   147   ar
    50    96    95    1
    51    96    98   ar
    52   100   102   ar
    53   100    98   ar
    54   146   147   ar
    55    95    92    1
    56   102   104   ar
    57     1     2    1
    58    21    22    2
    59    21    20    1
    60    98   101   ar
    61    92    91    1
    62     5     2    1
    63     5     6    1
    64     2     3    1
    65    20    19    1
    66    20    23    1
    67   104   103   ar
    68    45    44    1
    69    45    46    1
    70   101   103   ar
    71    91    89   am
    72    44    41    1
    73    46    40    1
    74    39    37   am
    75     3     4    2
    76     3     8   am
    77    24    23    1
    78    40    41    1
    79    41    42    1
    80    38    37    2
    81    89    90    2
    82    89    88    1
    83     8     9    1
    84    37    36    1
    85   159   158    1
    86    88    87    1
    87    42    43    2
    88    17    15   ar
    89    17    18   ar
    90    15    13   ar
    91     9    10    1
    92     9    12    1
    93    11    10    2
    94    36    35    1
    95    87    83   am
    96    18    16   ar
    97    13    12    1
    98    13    14   ar
    99   158   157   ar
   100   158   156   ar
   101    35    32    1
   102    53    51    1
   103    16    14   ar
   104    30    29    1
   105   157   155   ar
   106   156   154   ar
   107    83    84    2
   108    83    82    1
   109    29    26    1
   110    82    85    1
   111    82    81    1
   112    32    31    1
   113    32    33    1
   114   155   153   ar
   115    51    48    1
   116    51    52    1
   117    85    86    1
   118    47    48    1
   119    31    27   am
   120    78    76   ar
   121    78    80   ar
   122   154   153   ar
   123    27    28    2
   124    27    26    1
   125    48    49    1
   126    33    34    2
   127   153   152    1
   128    26    25    1
   129    76    75   ar
   130    68    69    1
   131    68    67    1
   132    73    72    2
   133    80    79   ar
   134    81    72   am
   135    61    59   am
   136    72    71    1
   137    60    59    2
   138    49    50    2
   139    59    58    1
   140    67    66    1
   141   152   149    1
   142    75    74    1
   143    75    77   ar
   144    79    77   ar
   145    74    71    1
   146    71    70    1
   147   149   148    1
   148   149   150    1
   149    58    55    1
   150    66    63    1
   151    54    55    1
   152    55    56    1
   153    62    56   am
   154    62    63    1
   155    56    57    2
   156    63    64    1
   157   150   151    2
   158    64    65    2
