@<TRIPOS>MOLECULE
tmp/6nhxA01.pdb
 118 115 0 0 0
SMALL
GASTEIGER

@<TRIPOS>ATOM
      1  N         -5.7450   -3.0150   16.7520 N.3    10  LEU10      -0.1245
      2  CA        -5.7260   -1.9390   17.7380 C.3    10  LEU10       0.1561
      3  C         -4.3840   -1.8990   18.4620 C.2    10  LEU10       0.2260
      4  O         -3.6730   -2.9020   18.5430 O.2    10  LEU10      -0.2867
      5  CB        -6.8810   -2.0990   18.7300 C.3    10  LEU10       0.0270
      6  CG        -8.2730   -2.0870   18.0910 C.3    10  LEU10       0.0019
      7  CD1       -9.3260   -2.4810   19.1250 C.3    10  LEU10       0.0001
      8  CD2       -8.5920   -0.7210   17.4850 C.3    10  LEU10       0.0001
      9  N          0.1670    9.7690   15.0850 N.3    29  MET29      -0.1230
     10  CA        -1.1850    9.4460   15.5270 C.3    29  MET29       0.1702
     11  C         -2.1440   10.4960   14.9710 C.2    29  MET29       0.2592
     12  O         -2.0030   11.6870   15.2750 O.2    29  MET29      -0.2718
     13  CB        -1.2540    9.4340   17.0520 C.3    29  MET29       0.0401
     14  CG        -2.6670    9.2020   17.5650 C.3    29  MET29       0.0596
     15  SD        -2.7960    9.4310   19.3480 S.3    29  MET29      -0.1393
     16  CE        -1.8640    8.0110   19.9260 C.3    29  MET29       0.0692
     17  N         -3.1220   10.0480   14.1790 N.am   30  TRP30      -0.1962
     18  CA        -4.0730   10.9230   13.4870 C.3    30  TRP30       0.1771
     19  C         -5.4420   10.8390   14.1630 C.2    30  TRP30       0.2620
     20  O         -6.0640    9.7690   14.1700 O.2    30  TRP30      -0.2715
     21  CB        -4.2010   10.5300   12.0110 C.3    30  TRP30       0.0590
     22  CG        -2.8850   10.2370   11.3400 C.ar   30  TRP30       0.0006
     23  CD1       -2.5250    9.0700   10.7040 C.ar   30  TRP30       0.0946
     24  CD2       -1.7490   11.1070   11.2640 C.ar   30  TRP30       0.0152
     25  NE1       -1.2330    9.1760   10.2190 N.ar   30  TRP30      -0.2442
     26  CE2       -0.7290   10.4070   10.5740 C.ar   30  TRP30       0.0810
     27  CE3       -1.4800   12.4050   11.7410 C.ar   30  TRP30       0.0012
     28  CZ2        0.5220   10.9780   10.3100 C.ar   30  TRP30       0.0191
     29  CZ3       -0.2310   12.9650   11.4860 C.ar   30  TRP30       0.0001
     30  CH2        0.7540   12.2510   10.7740 C.ar   30  TRP30       0.0015
     31  N         -5.9260   11.9570   14.7160 N.am   31  ASP31      -0.1957
     32  CA        -7.2740   11.9680   15.2870 C.3    31  ASP31       0.1840
     33  C         -8.3090   11.9720   14.1690 C.2    31  ASP31       0.2623
     34  O         -8.2990   12.8550   13.3080 O.2    31  ASP31      -0.2715
     35  CB        -7.4840   13.1930   16.1810 C.3    31  ASP31       0.1450
     36  CG        -7.0970   12.9400   17.6340 C.2    31  ASP31       0.3671
     37  OD1       -6.3590   11.9680   17.8880 O.co2  31  ASP31      -0.2456
     38  OD2       -7.5300   13.7100   18.5270 O.co2  31  ASP31      -0.2456
     39  N         -9.1870   10.9840   14.1620 N.am   32  GLY32      -0.1940
     40  CA       -10.2240   10.8860   13.1510 C.3    32  GLY32       0.2014
     41  C        -11.0750    9.6650   13.4190 C.2    32  GLY32       0.2639
     42  O        -11.1810    9.2320   14.5760 O.2    32  GLY32      -0.2714
     43  N        -11.6680    9.0920   12.3780 N.am   33  TYR33      -0.1959
     44  CA       -12.4310    7.8580   12.4960 C.3    33  TYR33       0.1771
     45  C        -11.7070    6.7670   11.7160 C.2    33  TYR33       0.2619
     46  O        -11.3240    6.9730   10.5580 O.2    33  TYR33      -0.2715
     47  CB       -13.8510    8.0080   11.9480 C.3    33  TYR33       0.0574
     48  CG       -14.8020    8.8520   12.7570 C.ar   33  TYR33      -0.0198
     49  CD1      -14.7530    8.8890   14.1460 C.ar   33  TYR33      -0.0009
     50  CD2      -15.7700    9.5980   12.1220 C.ar   33  TYR33      -0.0009
     51  CE1      -15.6490    9.6730   14.8660 C.ar   33  TYR33       0.0417
     52  CE2      -16.6600   10.3720   12.8230 C.ar   33  TYR33       0.0417
     53  CZ       -16.6000   10.4130   14.1880 C.ar   33  TYR33       0.1957
     54  OH       -17.5130   11.2040   14.8470 O.3    33  TYR33      -0.2866
     55  N        -11.5380    5.6110   12.3450 N.am   34  ARG34      -0.1977
     56  CA       -10.8680    4.4850   11.7090 C.3    34  ARG34       0.1597
     57  C        -11.7480    3.8910   10.6200 C.2    34  ARG34       0.2287
     58  O        -12.9380    3.6400   10.8310 O.2    34  ARG34      -0.2864
     59  CB       -10.5940    3.4240   12.7720 C.3    34  ARG34       0.0334
     60  CG        -9.7440    2.2780   12.2700 C.3    34  ARG34       0.0492
     61  CD        -8.2880    2.6790   12.1690 C.3    34  ARG34       0.2205
     62  NE        -7.4180    1.5350   11.9290 N.pl3  34  ARG34      -0.0865
     63  CZ        -6.9200    0.7570   12.8810 C.cat  34  ARG34       0.5346
     64  NH1       -7.1940    1.0010   14.1550 N.pl3  34  ARG34       0.1354
     65  NH2       -6.1380   -0.2610   12.5600 N.pl3  34  ARG34       0.1354
     66  N        -14.9380    1.0220   12.6520 N.3    49  ARG49      -0.1245
     67  CA       -14.2850    0.2080   13.6710 C.3    49  ARG49       0.1563
     68  C        -15.2340   -0.8400   14.2480 C.2    49  ARG49       0.2260
     69  O        -14.7980   -1.9310   14.6280 O.2    49  ARG49      -0.2867
     70  CB       -13.7190    1.1110   14.7660 C.3    49  ARG49       0.0307
     71  CG       -12.9190    0.3780   15.8250 C.3    49  ARG49       0.0489
     72  CD       -13.6110    0.5410   17.1320 C.3    49  ARG49       0.2205
     73  NE       -12.8620    0.0210   18.2690 N.pl3  49  ARG49      -0.0865
     74  CZ       -11.8450    0.6430   18.8530 C.cat  49  ARG49       0.5346
     75  NH1      -11.4100    1.8080   18.3990 N.pl3  49  ARG49       0.1354
     76  NH2      -11.2690    0.0950   19.9080 N.pl3  49  ARG49       0.1354
     77  N         -7.2690    6.2470    8.4510 N.3    78  GLU78      -0.1245
     78  CA        -8.0950    7.1600    9.2340 C.3    78  GLU78       0.1567
     79  C         -8.7850    8.1420    8.3010 C.2    78  GLU78       0.2260
     80  O         -8.1300    8.7450    7.4460 O.2    78  GLU78      -0.2867
     81  CB        -7.2250    7.9490   10.2230 C.3    78  GLU78       0.0388
     82  CG        -7.9760    8.5160   11.4110 C.3    78  GLU78       0.1160
     83  CD        -7.9650    7.5770   12.5990 C.2    78  GLU78       0.3649
     84  OE1       -7.3500    6.4990   12.5010 O.co2  78  GLU78      -0.2457
     85  OE2       -8.5640    7.9180   13.6360 O.co2  78  GLU78      -0.2457
     86  N        -10.1730   15.8030   15.7470 N.3    90  PHE90      -0.1241
     87  CA       -11.2950   14.9330   16.0590 C.3    90  PHE90       0.1605
     88  C        -12.5840   15.7300   16.1750 C.2    90  PHE90       0.2264
     89  O        -13.6220   15.3030   15.6600 O.2    90  PHE90      -0.2867
     90  CB       -11.0070   14.1790   17.3550 C.3    90  PHE90       0.0534
     91  CG       -12.0610   13.2010   17.7220 C.ar   90  PHE90      -0.0203
     92  CD1      -12.7100   13.2970   18.9380 C.ar   90  PHE90      -0.0042
     93  CD2      -12.4030   12.1840   16.8480 C.ar   90  PHE90      -0.0042
     94  CE1      -13.6920   12.3820   19.2850 C.ar   90  PHE90      -0.0003
     95  CE2      -13.3870   11.2710   17.1850 C.ar   90  PHE90      -0.0003
     96  CZ       -14.0320   11.3730   18.4020 C.ar   90  PHE90      -0.0000
     97  N        -10.8220   17.6960   23.3410 N.3   287  ARG287     -0.1245
     98  CA       -10.6010   16.7340   22.2660 C.3   287  ARG287      0.1563
     99  C        -11.8940   16.4160   21.5260 C.2   287  ARG287      0.2260
    100  O        -11.9450   16.5360   20.2980 O.2   287  ARG287     -0.2867
    101  CB        -9.8950   15.4720   22.7740 C.3   287  ARG287      0.0307
    102  CG        -9.2100   14.6940   21.6600 C.3   287  ARG287      0.0489
    103  CD        -8.9190   13.2680   22.0820 C.3   287  ARG287      0.2205
    104  NE        -8.0770   12.5810   21.1070 N.pl3 287  ARG287     -0.0865
    105  CZ        -7.7420   11.2990   21.1880 C.cat 287  ARG287      0.5346
    106  NH1       -8.1840   10.5550   22.1980 N.pl3 287  ARG287      0.1354
    107  NH2       -6.9590   10.7610   20.2630 N.pl3 287  ARG287      0.1354
    108  N        -17.1650   11.6100   23.5680 N.3   290  ARG290     -0.1245
    109  CA       -16.9170   10.1700   23.5250 C.3   290  ARG290      0.1563
    110  C        -18.2690    9.4720   23.6680 C.2   290  ARG290      0.2260
    111  O        -18.6390    9.0310   24.7700 O.2   290  ARG290     -0.2867
    112  CB       -15.9270    9.7220   24.6020 C.3   290  ARG290      0.0307
    113  CG       -14.4960   10.2760   24.4720 C.3   290  ARG290      0.0489
    114  CD       -14.0000   10.3010   23.0280 C.3   290  ARG290      0.2205
    115  NE       -13.9380    8.9760   22.4180 N.pl3 290  ARG290     -0.0865
    116  CZ       -12.8220    8.2680   22.2710 C.cat 290  ARG290      0.5346
    117  NH1      -11.6610    8.7520   22.6970 N.pl3 290  ARG290      0.1354
    118  NH2      -12.8650    7.0720   21.6970 N.pl3 290  ARG290      0.1354
@<TRIPOS>BOND
     1    80    79    2
     2    79    78    1
     3    77    78    1
     4    78    81    1
     5    25    26   ar
     6    25    23   ar
     7    81    82    1
     8    28    26   ar
     9    28    30   ar
    10    46    45    2
    11    26    24   ar
    12    57    58    2
    13    57    56    1
    14    23    22   ar
    15    30    29   ar
    16    24    22   ar
    17    24    27   ar
    18    22    21    1
    19    82    83    1
    20    29    27   ar
    21    56    55    1
    22    56    59    1
    23    45    55   am
    24    45    44    1
    25    62    61    1
    26    62    63    2
    27    47    44    1
    28    47    48    1
    29    21    18    1
    30    50    48   ar
    31    50    52   ar
    32    61    60    1
    33    60    59    1
    34    43    44    1
    35    43    41   am
    36    84    83   ar
    37    65    63    1
    38    83    85   ar
    39    66    67    1
    40    48    49   ar
    41    52    53   ar
    42    63    64    1
    43    40    41    1
    44    40    39    1
    45    34    33    2
    46    41    42    2
    47    18    19    1
    48    18    17    1
    49    67    68    1
    50    67    70    1
    51    49    51   ar
    52    39    33   am
    53    19    20    2
    54    19    31   am
    55    33    32    1
    56    17    11   am
    57    53    54    1
    58    53    51   ar
    59    68    69    2
    60    31    32    1
    61    70    71    1
    62    11    12    2
    63    11    10    1
    64     9    10    1
    65    32    35    1
    66    10    13    1
    67    89    88    2
    68    86    87    1
    69    71    72    1
    70    87    88    1
    71    87    90    1
    72    35    36    1
    73     1     2    1
    74    93    95   ar
    75    93    91   ar
    76    13    14    1
    77    72    73    1
    78    95    96   ar
    79    90    91    1
    80     8     6    1
    81    14    15    1
    82    36    37   ar
    83    36    38   ar
    84    91    92   ar
    85     2     3    1
    86     2     5    1
    87     6     5    1
    88     6     7    1
    89    73    74    2
    90    75    74    1
    91    96    94   ar
    92     3     4    2
    93    74    76    1
    94    92    94   ar
    95    15    16    1
    96   107   105    1
    97   100    99    2
    98   104   105    2
    99   104   103    1
   100   105   106    1
   101    99    98    1
   102   102   103    1
   103   102   101    1
   104   118   116    1
   105    98   101    1
   106    98    97    1
   107   116   115    2
   108   116   117    1
   109   115   114    1
   110   114   113    1
   111   109   108    1
   112   109   110    1
   113   109   112    1
   114   110   111    2
   115   113   112    1
