@<TRIPOS>MOLECULE
tmp/6nhzA00.pdb
 196 187 0 0 0
SMALL
GASTEIGER

@<TRIPOS>ATOM
      1  N         -5.6390   -4.1370   13.7180 N.3    11  MET11      -0.1230
      2  CA        -4.5730   -4.3100   14.6990 C.3    11  MET11       0.1702
      3  C         -4.4920   -3.0910   15.6080 C.2    11  MET11       0.2592
      4  O         -4.7420   -1.9590   15.1840 O.2    11  MET11      -0.2718
      5  CB        -3.2380   -4.5240   13.9770 C.3    11  MET11       0.0401
      6  CG        -2.0100   -4.7720   14.8420 C.3    11  MET11       0.0596
      7  SD        -0.7020   -5.3980   13.7570 S.3    11  MET11      -0.1393
      8  CE         0.6990   -5.5380   14.8710 C.3    11  MET11       0.0692
      9  N         -4.1370   -3.3340   16.8740 N.am   12  LEU12      -0.1966
     10  CA        -4.1100   -2.2960   17.9040 C.3    12  LEU12       0.1728
     11  C         -2.7170   -2.1570   18.4990 C.2    12  LEU12       0.2616
     12  O         -1.9250   -3.0980   18.4840 O.2    12  LEU12      -0.2715
     13  CB        -5.1150   -2.5970   19.0230 C.3    12  LEU12       0.0311
     14  CG        -6.5330   -2.8580   18.4900 C.3    12  LEU12       0.0022
     15  CD1       -7.4610   -3.4070   19.5820 C.3    12  LEU12       0.0001
     16  CD2       -7.0970   -1.5810   17.8900 C.3    12  LEU12       0.0001
     17  N         -2.4280   -0.9590   19.0350 N.am   13  ALA13      -0.1977
     18  CA        -1.1230   -0.6120   19.5810 C.3    13  ALA13       0.1597
     19  C         -1.1540   -0.6030   21.1050 C.2    13  ALA13       0.2287
     20  O         -2.2010   -0.4300   21.7180 O.2    13  ALA13      -0.2864
     21  CB        -0.6640    0.7720   19.1100 C.3    13  ALA13       0.0319
     22  N          0.1950    1.1680   24.6840 N.3    15  HIS15      -0.1241
     23  CA         0.7190    2.4220   25.2100 C.3    15  HIS15       0.1621
     24  C          2.1600    2.2400   25.6710 C.2    15  HIS15       0.2264
     25  O          2.4790    1.2780   26.3800 O.2    15  HIS15      -0.2867
     26  CB        -0.1330    2.9330   26.3740 C.3    15  HIS15       0.0745
     27  CG        -1.2400    3.8520   25.9610 C.ar   15  HIS15       0.0817
     28  ND1       -1.0260    4.9860   25.2090 N.ar   15  HIS15      -0.2268
     29  CD2       -2.5660    3.8280   26.2370 C.ar   15  HIS15       0.1154
     30  CE1       -2.1750    5.6080   25.0160 C.ar   15  HIS15       0.1986
     31  NE2       -3.1240    4.9290   25.6360 N.ar   15  HIS15      -0.2212
     32  N          5.2000    6.4870   12.6670 N.3    29  GLU29      -0.1231
     33  CA         4.0810    7.1640   12.0240 C.3    29  GLU29       0.1699
     34  C          3.5020    8.2530   12.9250 C.2    29  GLU29       0.2593
     35  O          3.5080    8.1370   14.1500 O.2    29  GLU29      -0.2718
     36  CB         2.9720    6.1680   11.6900 C.3    29  GLU29       0.0402
     37  CG         3.3500    5.1120   10.6620 C.3    29  GLU29       0.1161
     38  CD         2.1770    4.2400   10.2960 C.2    29  GLU29       0.3649
     39  OE1        1.0230    4.6870   10.4810 O.co2  29  GLU29      -0.2457
     40  OE2        2.3890    3.1160    9.8110 O.co2  29  GLU29      -0.2457
     41  N          2.9340    9.2840   12.3100 N.am   30  GLY30      -0.1942
     42  CA         2.0810   10.1870   13.0600 C.3    30  GLY30       0.2014
     43  C          0.8040    9.5020   13.5240 C.2    30  GLY30       0.2639
     44  O          0.2780    8.5860   12.8800 O.2    30  GLY30      -0.2714
     45  N          0.3090    9.9350   14.6840 N.am   31  MET31      -0.1963
     46  CA        -0.9450    9.4270   15.2300 C.3    31  MET31       0.1736
     47  C         -2.0760   10.3720   14.8390 C.2    31  MET31       0.2616
     48  O         -2.0360   11.5550   15.1860 O.2    31  MET31      -0.2715
     49  CB        -0.8550    9.2890   16.7550 C.3    31  MET31       0.0427
     50  CG        -2.1440    8.8040   17.3970 C.3    31  MET31       0.0599
     51  SD        -2.0710    8.8670   19.2440 S.3    31  MET31      -0.1393
     52  CE        -0.7670    7.6970   19.5720 C.3    31  MET31       0.0692
     53  N         -3.0660    9.8480   14.0980 N.am   32  TRP32      -0.1960
     54  CA        -4.1330   10.6290   13.4700 C.3    32  TRP32       0.1771
     55  C         -5.4080   10.5070   14.2980 C.2    32  TRP32       0.2619
     56  O         -5.9340    9.4020   14.4790 O.2    32  TRP32      -0.2715
     57  CB        -4.3770   10.1560   12.0240 C.3    32  TRP32       0.0590
     58  CG        -3.1070    9.9360   11.2410 C.ar   32  TRP32       0.0006
     59  CD1       -2.7250    8.8040   10.5890 C.ar   32  TRP32       0.0946
     60  CD2       -2.0320   10.8700   11.0900 C.ar   32  TRP32       0.0152
     61  NE1       -1.4790    8.9840   10.0270 N.ar   32  TRP32      -0.2442
     62  CE2       -1.0340   10.2430   10.3340 C.ar   32  TRP32       0.0810
     63  CE3       -1.8210   12.1850   11.5270 C.ar   32  TRP32       0.0012
     64  CZ2        0.1560   10.8840    9.9930 C.ar   32  TRP32       0.0191
     65  CZ3       -0.6390   12.8160   11.1910 C.ar   32  TRP32       0.0001
     66  CH2        0.3330   12.1670   10.4330 C.ar   32  TRP32       0.0015
     67  N         -5.9010   11.6340   14.8120 N.am   33  ASP33      -0.1971
     68  CA        -7.1260   11.6080   15.6060 C.3    33  ASP33       0.1709
     69  C         -8.3020   11.6400   14.6510 C.2    33  ASP33       0.2293
     70  O         -8.7850   12.7030   14.2700 O.2    33  ASP33      -0.2864
     71  CB        -7.1870   12.7810   16.5780 C.3    33  ASP33       0.1436
     72  CG        -8.1360   12.5250   17.7310 C.2    33  ASP33       0.3671
     73  OD1       -8.8020   11.4680   17.7440 O.co2  33  ASP33      -0.2456
     74  OD2       -8.2310   13.3880   18.6220 O.co2  33  ASP33      -0.2456
     75  N        -10.9230    5.0370   12.8000 N.3    36  ARG36      -0.1245
     76  CA       -10.1900    3.9140   12.2210 C.3    36  ARG36       0.1563
     77  C        -11.0450    3.1880   11.1810 C.2    36  ARG36       0.2260
     78  O        -12.2130    2.8720   11.4330 O.2    36  ARG36      -0.2867
     79  CB        -9.7720    2.9540   13.3410 C.3    36  ARG36       0.0307
     80  CG        -8.8970    1.7860   12.8970 C.3    36  ARG36       0.0489
     81  CD        -7.4930    2.2510   12.5670 C.3    36  ARG36       0.2205
     82  NE        -6.6260    1.1210   12.2490 N.pl3  36  ARG36      -0.0865
     83  CZ        -6.0330    0.3660   13.1710 C.cat  36  ARG36       0.5346
     84  NH1       -6.2230    0.6400   14.4590 N.pl3  36  ARG36       0.1354
     85  NH2       -5.2590   -0.6590   12.8090 N.pl3  36  ARG36       0.1354
     86  N        -13.9430   -0.5850   13.0030 N.3    51  ARG51      -0.1245
     87  CA       -13.2310   -1.4260   13.9560 C.3    51  ARG51       0.1563
     88  C        -14.1530   -2.4640   14.5920 C.2    51  ARG51       0.2260
     89  O        -13.7730   -3.6290   14.7550 O.2    51  ARG51      -0.2867
     90  CB       -12.6060   -0.5490   15.0220 C.3    51  ARG51       0.0307
     91  CG       -12.1750   -1.3070   16.2280 C.3    51  ARG51       0.0489
     92  CD       -11.3340   -0.3890   17.0490 C.3    51  ARG51       0.2205
     93  NE       -11.0520   -0.9190   18.3770 N.pl3  51  ARG51      -0.0865
     94  CZ       -10.3330   -0.2510   19.2690 C.cat  51  ARG51       0.5346
     95  NH1       -9.8440    0.9420   18.9490 N.pl3  51  ARG51       0.1354
     96  NH2      -10.1020   -0.7630   20.4680 N.pl3  51  ARG51       0.1354
     97  N         -6.8670    5.8420    8.6930 N.3    80  GLU80      -0.1245
     98  CA        -7.7270    6.7180    9.4830 C.3    80  GLU80       0.1567
     99  C         -8.4710    7.6640    8.5500 C.2    80  GLU80       0.2260
    100  O         -7.8400    8.3710    7.7610 O.2    80  GLU80      -0.2867
    101  CB        -6.9240    7.5580   10.4800 C.3    80  GLU80       0.0388
    102  CG        -6.4120    6.8090   11.6890 C.3    80  GLU80       0.1160
    103  CD        -7.3690    6.8680   12.8560 C.2    80  GLU80       0.3649
    104  OE1       -8.0340    7.9090   13.0460 O.co2  80  GLU80      -0.2457
    105  OE2       -7.4710    5.8740   13.5830 O.co2  80  GLU80      -0.2457
    106  N         -2.3420    3.7450    6.1300 N.3   109  PHE109     -0.1241
    107  CA        -1.0630    3.3730    6.7160 C.3   109  PHE109      0.1605
    108  C         -0.7800    1.8710    6.7120 C.2   109  PHE109      0.2264
    109  O          0.2440    1.4560    7.2680 O.2   109  PHE109     -0.2867
    110  CB        -0.9090    3.9360    8.1550 C.3   109  PHE109      0.0534
    111  CG        -2.0860    3.6900    9.0770 C.ar  109  PHE109     -0.0203
    112  CD1       -2.4530    2.3960    9.4660 C.ar  109  PHE109     -0.0042
    113  CD2       -2.7900    4.7660    9.6120 C.ar  109  PHE109     -0.0042
    114  CE1       -3.5230    2.1760   10.3590 C.ar  109  PHE109     -0.0003
    115  CE2       -3.8570    4.5640   10.4980 C.ar  109  PHE109     -0.0003
    116  CZ        -4.2300    3.2550   10.8720 C.ar  109  PHE109     -0.0000
    117  N         -1.3410   14.0880   17.3300 N.3   163  GLU163     -0.1245
    118  CA        -1.7560   13.5190   18.6100 C.3   163  GLU163      0.1567
    119  C         -0.6140   12.8070   19.3280 C.2   163  GLU163      0.2260
    120  O         -0.6320   12.6870   20.5640 O.2   163  GLU163     -0.2867
    121  CB        -2.9140   12.5570   18.3350 C.3   163  GLU163      0.0388
    122  CG        -3.7050   12.1150   19.5190 C.3   163  GLU163      0.1160
    123  CD        -4.8860   11.2590   19.1190 C.2   163  GLU163      0.3649
    124  OE1       -4.8720   10.6870   18.0010 O.co2 163  GLU163     -0.2457
    125  OE2       -5.8370   11.1690   19.9260 O.co2 163  GLU163     -0.2457
    126  N          2.8860    6.5950   16.5250 N.3   166  ILE166     -0.1245
    127  CA         2.8280    5.1480   16.6660 C.3   166  ILE166      0.1561
    128  C          4.0450    4.5580   15.9660 C.2   166  ILE166      0.2260
    129  O          4.2390    4.7470   14.7520 O.2   166  ILE166     -0.2867
    130  CB         1.5170    4.5610   16.1260 C.3   166  ILE166      0.0252
    131  CG1        0.3240    5.2630   16.8020 C.3   166  ILE166      0.0019
    132  CG2        1.4920    3.0380   16.3540 C.3   166  ILE166      0.0019
    133  CD1       -0.9420    4.4370   16.7810 C.3   166  ILE166      0.0001
    134  N          5.8830    1.2920   14.7290 N.3   168  LYS168     -0.1245
    135  CA         5.5330   -0.0540   14.3050 C.3   168  LYS168      0.1561
    136  C          6.8150   -0.7820   13.9420 C.2   168  LYS168      0.2260
    137  O          7.6240   -0.2560   13.1670 O.2   168  LYS168     -0.2867
    138  CB         4.5530   -0.0060   13.1260 C.3   168  LYS168      0.0271
    139  CG         3.2970    0.8340   13.4430 C.3   168  LYS168      0.0035
    140  CD         2.2980    0.8740   12.2980 C.3   168  LYS168      0.0206
    141  CE         1.1140    1.7500   12.6590 C.3   168  LYS168      0.1093
    142  NZ         0.1800    1.9240   11.4980 N.3   168  LYS168     -0.1314
    143  N         -4.1800   -6.5350   20.1490 N.3   179  ARG179     -0.1245
    144  CA        -3.3010   -5.4730   20.6340 C.3   179  ARG179      0.1563
    145  C         -1.9170   -6.0610   20.8510 C.2   179  ARG179      0.2260
    146  O         -1.7690   -7.0450   21.5830 O.2   179  ARG179     -0.2867
    147  CB        -3.8320   -4.8720   21.9330 C.3   179  ARG179      0.0307
    148  CG        -3.1350   -3.5940   22.3190 C.3   179  ARG179      0.0489
    149  CD        -3.7070   -3.0340   23.6100 C.3   179  ARG179      0.2205
    150  NE        -5.1420   -2.7690   23.5240 N.pl3 179  ARG179     -0.0865
    151  CZ        -5.6710   -1.6750   22.9820 C.cat 179  ARG179      0.5346
    152  NH1       -4.8830   -0.7520   22.4480 N.pl3 179  ARG179      0.1354
    153  NH2       -6.9920   -1.5160   22.9420 N.pl3 179  ARG179      0.1354
    154  N          3.3960   -2.7080   17.9930 N.3   183  TRP183     -0.1241
    155  CA         2.9740   -1.3330   17.7240 C.3   183  TRP183      0.1605
    156  C          2.9520   -0.5860   19.0530 C.2   183  TRP183      0.2264
    157  O          2.2870   -1.0340   19.9900 O.2   183  TRP183     -0.2867
    158  CB         1.5650   -1.2730   17.1360 C.3   183  TRP183      0.0550
    159  CG         1.3950   -1.6960   15.6930 C.ar  183  TRP183      0.0003
    160  CD1        2.2650   -2.4160   14.9250 C.ar  183  TRP183      0.0946
    161  CD2        0.2560   -1.4230   14.8690 C.ar  183  TRP183      0.0152
    162  NE1        1.7360   -2.5940   13.6580 N.ar  183  TRP183     -0.2442
    163  CE2        0.5080   -1.9890   13.6020 C.ar  183  TRP183      0.0810
    164  CE3       -0.9480   -0.7340   15.0740 C.ar  183  TRP183      0.0012
    165  CZ2       -0.4000   -1.9020   12.5510 C.ar  183  TRP183      0.0191
    166  CZ3       -1.8510   -0.6420   14.0190 C.ar  183  TRP183      0.0001
    167  CH2       -1.5730   -1.2390   12.7730 C.ar  183  TRP183      0.0015
    168  N          2.1060    3.0160   20.9280 N.3   185  LYS185     -0.1245
    169  CA         1.4760    4.3210   20.7860 C.3   185  LYS185      0.1561
    170  C          1.8810    5.2180   21.9470 C.2   185  LYS185      0.2260
    171  O          1.9560    4.7780   23.1040 O.2   185  LYS185     -0.2867
    172  CB        -0.0480    4.2270   20.6880 C.3   185  LYS185      0.0271
    173  CG        -0.7270    3.3780   21.7650 C.3   185  LYS185      0.0035
    174  CD        -2.2160    3.6920   21.8770 C.3   185  LYS185      0.0206
    175  CE        -2.9130    2.7240   22.8370 C.3   185  LYS185      0.1093
    176  NZ        -4.3490    3.0550   23.0510 N.3   185  LYS185     -0.1314
    177  N          1.2320    9.2470   23.1620 N.3   187  LYS187     -0.1245
    178  CA         0.4360   10.4440   22.9190 C.3   187  LYS187      0.1561
    179  C          1.0680   11.6650   23.5690 C.2   187  LYS187      0.2260
    180  O          1.6920   11.5820   24.6310 O.2   187  LYS187     -0.2867
    181  CB        -0.9870   10.2730   23.4490 C.3   187  LYS187      0.0271
    182  CG        -1.7130    9.0370   22.9480 C.3   187  LYS187      0.0035
    183  CD        -3.1150    8.9450   23.5120 C.3   187  LYS187      0.0206
    184  CE        -3.9750   10.1140   23.0380 C.3   187  LYS187      0.1093
    185  NZ        -5.4260    9.7900   23.1780 N.3   187  LYS187     -0.1314
    186  N        -12.0960   17.6670   23.1680 N.3   289  ARG289     -0.1245
    187  CA       -11.9810   16.6080   22.1740 C.3   289  ARG289      0.1563
    188  C        -13.3540   16.1850   21.6780 C.2   289  ARG289      0.2260
    189  O        -13.5730   16.0720   20.4700 O.2   289  ARG289     -0.2867
    190  CB       -11.2260   15.3920   22.7390 C.3   289  ARG289      0.0307
    191  CG       -11.2940   14.1460   21.8440 C.3   289  ARG289      0.0489
    192  CD       -10.1710   13.1420   22.1160 C.3   289  ARG289      0.2205
    193  NE       -10.0070   12.1810   21.0170 N.pl3 289  ARG289     -0.0865
    194  CZ       -10.7060   11.0520   20.9000 C.cat 289  ARG289      0.5346
    195  NH1      -11.6170   10.7430   21.8110 N.pl3 289  ARG289      0.1354
    196  NH2      -10.5060   10.2340   19.8710 N.pl3 289  ARG289      0.1354
@<TRIPOS>BOND
     1   106   107    1
     2   108   107    1
     3   108   109    2
     4   107   110    1
     5   100    99    2
     6   110   111    1
     7    99    98    1
     8    97    98    1
     9   111   112   ar
    10   111   113   ar
    11   112   114   ar
    12    98   101    1
    13   113   115   ar
    14    40    38   ar
    15    64    62   ar
    16    64    66   ar
    17    61    62   ar
    18    61    59   ar
    19    38    39   ar
    20    38    37    1
    21    62    60   ar
    22   114   116   ar
    23    66    65   ar
    24   101   102    1
    25   115   116   ar
    26    59    58   ar
    27    37    36    1
    28    60    58   ar
    29    60    63   ar
    30    77    78    2
    31    77    76    1
    32    65    63   ar
    33    58    57    1
    34   142   141    1
    35   102   103    1
    36    36    33    1
    37    57    54    1
    38    33    32    1
    39    33    34    1
    40    76    75    1
    41    76    79    1
    42    82    81    1
    43    82    83    2
    44   140   141    1
    45   140   139    1
    46    41    34   am
    47    41    42    1
    48   165   167   ar
    49   165   163   ar
    50    81    80    1
    51   167   166   ar
    52    85    83    1
    53   103   104   ar
    54   103   105   ar
    55    44    43    2
    56    80    79    1
    57    34    35    2
    58    86    87    1
    59    42    43    1
    60   138   139    1
    61   138   135    1
    62   137   136    2
    63    83    84    1
    64    54    53    1
    65    54    55    1
    66    43    45   am
    67   163   162   ar
    68   163   161   ar
    69   162   160   ar
    70     1     2    1
    71     7     6    1
    72     7     8    1
    73   136   135    1
    74    87    88    1
    75    87    90    1
    76     5     2    1
    77     5     6    1
    78   166   164   ar
    79    53    47   am
    80    70    69    2
    81    55    56    2
    82    55    67   am
    83   135   134    1
    84    88    89    2
    85    69    68    1
    86    45    46    1
    87     2     3    1
    88   129   128    2
    89    67    68    1
    90    47    48    2
    91    47    46    1
    92   161   164   ar
    93   161   159   ar
    94   160   159   ar
    95    90    91    1
    96     4     3    2
    97    46    49    1
    98    68    71    1
    99     3     9   am
   100   159   158    1
   101   128   127    1
   102   130   132    1
   103   130   127    1
   104   130   131    1
   105    91    92    1
   106   126   127    1
   107    71    72    1
   108    49    50    1
   109   133   131    1
   110     9    10    1
   111    92    93    1
   112   158   155    1
   113   117   118    1
   114    50    51    1
   115   155   154    1
   116   155   156    1
   117    72    73   ar
   118    72    74   ar
   119    16    14    1
   120    10    11    1
   121    10    13    1
   122   124   123   ar
   123   121   118    1
   124   121   122    1
   125    93    94    2
   126    12    11    2
   127    14    13    1
   128    14    15    1
   129    11    17   am
   130   118   119    1
   131    95    94    1
   132    17    18    1
   133   156   157    2
   134    21    18    1
   135   123   122    1
   136   123   125   ar
   137    51    52    1
   138    94    96    1
   139   119   120    2
   140    18    19    1
   141   196   194    1
   142   143   144    1
   143   189   188    2
   144   144   145    1
   145   144   147    1
   146   172   169    1
   147   172   173    1
   148   169   168    1
   149   169   170    1
   150   145   146    2
   151   194   193    2
   152   194   195    1
   153   193   192    1
   154    19    20    2
   155   188   187    1
   156   173   174    1
   157   191   192    1
   158   191   190    1
   159   174   175    1
   160   147   148    1
   161   170   171    2
   162   187   190    1
   163   187   186    1
   164   148   149    1
   165   152   151    1
   166   175   176    1
   167   178   177    1
   168   178   181    1
   169   178   179    1
   170   153   151    1
   171   182   181    1
   172   182   183    1
   173   151   150    2
   174   184   185    1
   175   184   183    1
   176   150   149    1
   177   179   180    2
   178    22    23    1
   179    30    28   ar
   180    30    31   ar
   181    28    27   ar
   182    23    24    1
   183    23    26    1
   184    31    29   ar
   185    24    25    2
   186    27    29   ar
   187    27    26    1
