@<TRIPOS>MOLECULE
tmp/6nimB00.pdb
 153 149 0 0 0
SMALL
GASTEIGER

@<TRIPOS>ATOM
      1  N         -1.3550   81.6220   18.5480 N.3    21  LEU21      -0.1231
      2  CA         0.0900   81.6500   18.1790 C.3    21  LEU21       0.1693
      3  C          0.2720   81.7020   16.6500 C.2    21  LEU21       0.2592
      4  O          1.4060   81.8790   16.2090 O.2    21  LEU21      -0.2718
      5  CB         0.7860   80.4290   18.7980 C.3    21  LEU21       0.0284
      6  CG         0.9110   80.4200   20.3270 C.3    21  LEU21       0.0019
      7  CD1        1.4320   79.0730   20.8420 C.3    21  LEU21       0.0001
      8  CD2        1.8350   81.5200   20.8100 C.3    21  LEU21       0.0001
      9  N         -0.7710   81.4390   15.8480 N.am   22  LYS22      -0.1966
     10  CA        -0.6600   81.2380   14.3820 C.3    22  LYS22       0.1728
     11  C          0.3080   80.0840   14.0750 C.2    22  LYS22       0.2616
     12  O          0.9100   80.0560   12.9970 O.2    22  LYS22      -0.2715
     13  CB        -0.2690   82.5510   13.6810 C.3    22  LYS22       0.0311
     14  CG        -1.2430   83.6950   13.9280 C.3    22  LYS22       0.0038
     15  CD        -0.7770   85.0250   13.3250 C.3    22  LYS22       0.0206
     16  CE        -1.8590   86.0820   13.1570 C.3    22  LYS22       0.1093
     17  NZ        -2.9840   85.9380   14.1100 N.3    22  LYS22      -0.1314
     18  N          0.4090   79.1040   14.9680 N.am   23  MET23      -0.1963
     19  CA         1.3790   77.9890   14.8330 C.3    23  MET23       0.1736
     20  C          0.8960   76.9580   13.7970 C.2    23  MET23       0.2616
     21  O          1.7150   76.2200   13.2850 O.2    23  MET23      -0.2715
     22  CB         1.6210   77.2950   16.1770 C.3    23  MET23       0.0427
     23  CG         0.3970   76.6280   16.7720 C.3    23  MET23       0.0599
     24  SD         0.7280   75.8780   18.3850 S.3    23  MET23      -0.1393
     25  CE         1.6880   74.4660   17.8350 C.3    23  MET23       0.0692
     26  N         -0.4090   76.8810   13.5410 N.am   24  PHE24      -0.1974
     27  CA        -1.0180   75.9330   12.5720 C.3    24  PHE24       0.1639
     28  C         -1.3630   76.5930   11.2190 C.2    24  PHE24       0.2290
     29  O         -1.8920   75.8770   10.3680 O.2    24  PHE24      -0.2864
     30  CB        -2.3080   75.3510   13.1570 C.3    24  PHE24       0.0560
     31  CG        -2.1250   74.6010   14.4410 C.ar   24  PHE24      -0.0200
     32  CD1       -1.2320   73.5490   14.5060 C.ar   24  PHE24      -0.0042
     33  CD2       -2.8420   74.9330   15.5750 C.ar   24  PHE24      -0.0042
     34  CE1       -1.0790   72.8190   15.6680 C.ar   24  PHE24      -0.0003
     35  CE2       -2.7060   74.1850   16.7350 C.ar   24  PHE24      -0.0003
     36  CZ        -1.8170   73.1420   16.7840 C.ar   24  PHE24      -0.0000
     37  N          0.4970   77.8090    8.5980 N.3    26  HIS26      -0.1241
     38  CA         1.3480   77.4810    7.4230 C.3    26  HIS26       0.1621
     39  C          2.1970   76.2610    7.7230 C.2    26  HIS26       0.2264
     40  O          2.4560   75.9690    8.8990 O.2    26  HIS26      -0.2867
     41  CB         2.1940   78.7030    7.0260 C.3    26  HIS26       0.0745
     42  CG         1.3460   79.9070    6.7910 C.ar   26  HIS26       0.0817
     43  ND1        0.5600   80.0280    5.6500 N.ar   26  HIS26      -0.2268
     44  CD2        1.0930   80.9960    7.5500 C.ar   26  HIS26       0.1154
     45  CE1       -0.0970   81.1630    5.7030 C.ar   26  HIS26       0.1986
     46  NE2        0.2020   81.7790    6.8540 N.ar   26  HIS26      -0.2212
     47  N          5.4610   73.9530    8.2780 N.3    28  ILE28      -0.1245
     48  CA         6.7610   74.1270    8.9840 C.3    28  ILE28       0.1561
     49  C          7.8560   73.9160    7.9430 C.2    28  ILE28       0.2260
     50  O          7.8610   72.8650    7.2740 O.2    28  ILE28      -0.2867
     51  CB         6.8520   73.1420   10.1710 C.3    28  ILE28       0.0252
     52  CG1        5.7860   73.4850   11.2100 C.3    28  ILE28       0.0019
     53  CG2        8.2430   73.1190   10.7860 C.3    28  ILE28       0.0019
     54  CD1        5.8620   74.9240   11.6420 C.3    28  ILE28       0.0001
     55  N         12.5990   77.1010    9.6360 N.3    32  GLU32      -0.1231
     56  CA        11.9740   77.4030   10.9540 C.3    32  GLU32       0.1699
     57  C         12.5280   76.4430   12.0210 C.2    32  GLU32       0.2592
     58  O         13.0370   76.9260   13.0450 O.2    32  GLU32      -0.2718
     59  CB        10.4460   77.3250   10.8190 C.3    32  GLU32       0.0402
     60  CG         9.8740   78.4420    9.9690 C.3    32  GLU32       0.1161
     61  CD         8.5770   78.1470    9.2240 C.2    32  GLU32       0.3649
     62  OE1        7.8690   77.1650    9.5780 O.co2  32  GLU32      -0.2457
     63  OE2        8.2820   78.9050    8.2730 O.co2  32  GLU32      -0.2457
     64  N         12.4260   75.1260   11.7910 N.am   33  LEU33      -0.1980
     65  CA        12.7720   74.0640   12.7770 C.3    33  LEU33       0.1596
     66  C         13.5390   72.9690   12.0290 C.2    33  LEU33       0.2287
     67  O         12.9440   72.0650   11.4270 O.2    33  LEU33      -0.2864
     68  CB        11.4820   73.5010   13.3910 C.3    33  LEU33       0.0297
     69  CG        10.6460   74.4830   14.2050 C.3    33  LEU33       0.0022
     70  CD1        9.2650   73.9100   14.4670 C.3    33  LEU33       0.0001
     71  CD2       11.3330   74.8100   15.5130 C.3    33  LEU33       0.0001
     72  N         12.5660   69.1260   12.4150 N.3    36  TYR36      -0.1241
     73  CA        11.1130   68.8150   12.4660 C.3    36  TYR36       0.1605
     74  C         10.8240   67.6090   11.5620 C.2    36  TYR36       0.2264
     75  O         10.0440   66.7070   11.9560 O.2    36  TYR36      -0.2867
     76  CB        10.3130   70.0300   12.0260 C.3    36  TYR36       0.0534
     77  CG         8.8360   69.8400   12.1880 C.ar   36  TYR36      -0.0201
     78  CD1        8.2390   70.0760   13.4060 C.ar   36  TYR36      -0.0009
     79  CD2        8.0320   69.4670   11.1230 C.ar   36  TYR36      -0.0009
     80  CE1        6.8750   69.9060   13.5800 C.ar   36  TYR36       0.0417
     81  CE2        6.6700   69.3090   11.2740 C.ar   36  TYR36       0.0417
     82  CZ         6.0870   69.5150   12.5150 C.ar   36  TYR36       0.1957
     83  OH         4.7460   69.3400   12.6940 O.3    36  TYR36      -0.2866
     84  N          1.2370   68.5400    8.5100 N.3    44  VAL44      -0.1245
     85  CA         0.0070   69.1170    7.9070 C.3    44  VAL44       0.1561
     86  C         -0.3210   70.3910    8.6760 C.2    44  VAL44       0.2260
     87  O          0.1400   70.5190    9.8160 O.2    44  VAL44      -0.2867
     88  CB        -1.1090   68.0640    7.9030 C.3    44  VAL44       0.0252
     89  CG1       -1.4000   67.5670    9.2910 C.3    44  VAL44       0.0019
     90  CG2       -2.3700   68.5520    7.1950 C.3    44  VAL44       0.0019
     91  N         -2.5780   67.0410   12.6270 N.3    71  MET71      -0.1245
     92  CA        -1.9170   68.3490   12.8270 C.3    71  MET71       0.1570
     93  C         -1.7230   68.5540   14.3330 C.2    71  MET71       0.2261
     94  O         -0.6180   68.9600   14.7640 O.2    71  MET71      -0.2867
     95  CB        -2.7680   69.4540   12.2020 C.3    71  MET71       0.0387
     96  CG        -2.2180   70.8490   12.3660 C.3    71  MET71       0.0595
     97  SD        -3.3780   72.0750   11.7790 S.3    71  MET71      -0.1393
     98  CE        -4.5180   72.1510   13.1630 C.3    71  MET71       0.0692
     99  N          2.0150   68.4350   16.8570 N.3    75  ALA75      -0.1245
    100  CA         2.4900   69.4940   17.7700 C.3    75  ALA75       0.1562
    101  C          2.6520   68.9290   19.1910 C.2    75  ALA75       0.2260
    102  O          3.5860   69.3190   19.8620 O.2    75  ALA75      -0.2867
    103  CB         1.5580   70.6680   17.7240 C.3    75  ALA75       0.0290
    104  N          5.9910   66.7420   18.8980 N.3    78  TYR78      -0.1227
    105  CA         7.2120   67.5150   18.6050 C.3    78  TYR78       0.1736
    106  C          7.6040   68.3730   19.8180 C.2    78  TYR78       0.2595
    107  O          8.7870   68.5090   20.1370 O.2    78  TYR78      -0.2718
    108  CB         7.0190   68.3790   17.3640 C.3    78  TYR78       0.0548
    109  CG         8.2740   69.1580   17.0940 C.ar   78  TYR78      -0.0200
    110  CD1        9.3970   68.5220   16.5850 C.ar   78  TYR78      -0.0009
    111  CD2        8.4100   70.4710   17.4960 C.ar   78  TYR78      -0.0009
    112  CE1       10.5810   69.2150   16.3810 C.ar   78  TYR78       0.0417
    113  CE2        9.5900   71.1800   17.2910 C.ar   78  TYR78       0.0417
    114  CZ        10.6930   70.5400   16.7570 C.ar   78  TYR78       0.1957
    115  OH        11.8740   71.2280   16.6050 O.3    78  TYR78      -0.2866
    116  N          6.6270   68.9850   20.4870 N.am   79  ASN79      -0.1974
    117  CA         6.8940   70.0530   21.4790 C.3    79  ASN79       0.1688
    118  C          6.9450   69.4490   22.8750 C.2    79  ASN79       0.2292
    119  O          6.1050   68.5850   23.1670 O.2    79  ASN79      -0.2864
    120  CB         5.8350   71.1500   21.3730 C.3    79  ASN79       0.1181
    121  CG         5.9850   71.9460   20.0960 C.2    79  ASN79       0.2629
    122  OD1        6.9320   72.7250   19.9490 O.2    79  ASN79      -0.2716
    123  ND2        5.0640   71.7560   19.1710 N.am   79  ASN79      -0.0877
    124  N          5.7260   73.9570   27.0650 N.3    83  THR83      -0.1203
    125  CA         5.9590   75.0660   26.1090 C.3    83  THR83       0.1994
    126  C          4.6050   75.5630   25.5900 C.2    83  THR83       0.2618
    127  O          3.6120   74.7770   25.5410 O.2    83  THR83      -0.2717
    128  CB         6.8630   74.6650   24.9510 C.3    83  THR83       0.1784
    129  OG1        6.1750   73.6830   24.1670 O.3    83  THR83      -0.2211
    130  CG2        8.2300   74.2050   25.4000 C.3    83  THR83       0.0376
    131  N          4.5370   76.8190   25.1950 N.am   84  GLU84      -0.1965
    132  CA         3.2620   77.4030   24.7080 C.3    84  GLU84       0.1733
    133  C          2.7300   76.6400   23.4840 C.2    84  GLU84       0.2616
    134  O          1.4880   76.5640   23.3180 O.2    84  GLU84      -0.2715
    135  CB         3.4430   78.8990   24.4580 C.3    84  GLU84       0.0429
    136  CG         4.4450   79.2580   23.3780 C.3    84  GLU84       0.1163
    137  CD         4.5140   80.7520   23.1360 C.2    84  GLU84       0.3649
    138  OE1        3.9160   81.4840   23.9150 O.co2  84  GLU84      -0.2457
    139  OE2        5.1480   81.1570   22.1500 O.co2  84  GLU84      -0.2457
    140  N          3.6070   76.0970   22.6430 N.am   85  TRP85      -0.1974
    141  CA         3.2000   75.3210   21.4410 C.3    85  TRP85       0.1640
    142  C          2.5270   74.0210   21.8980 C.2    85  TRP85       0.2290
    143  O          1.4410   73.6720   21.3560 O.2    85  TRP85      -0.2864
    144  CB         4.3780   75.1010   20.4940 C.3    85  TRP85       0.0576
    145  CG         5.0080   76.4140   20.1810 C.ar   85  TRP85       0.0006
    146  CD1        4.5200   77.3550   19.3340 C.ar   85  TRP85       0.0946
    147  CD2        6.1820   76.9790   20.7930 C.ar   85  TRP85       0.0152
    148  NE1        5.3170   78.4690   19.3700 N.ar   85  TRP85      -0.2442
    149  CE2        6.3450   78.2710   20.2460 C.ar   85  TRP85       0.0810
    150  CE3        7.1120   76.5210   21.7270 C.ar   85  TRP85       0.0012
    151  CZ2        7.3940   79.1260   20.6060 C.ar   85  TRP85       0.0191
    152  CZ3        8.1600   77.3540   22.0730 C.ar   85  TRP85       0.0001
    153  CH2        8.2960   78.6360   21.5220 C.ar   85  TRP85       0.0015
@<TRIPOS>BOND
     1    43    45   ar
     2    43    42   ar
     3    45    46   ar
     4    42    41    1
     5    42    44   ar
     6    46    44   ar
     7    41    38    1
     8    90    88    1
     9    50    49    2
    10    38    39    1
    11    38    37    1
    12    39    40    2
    13    88    85    1
    14    88    89    1
    15    85    84    1
    16    85    86    1
    17    49    48    1
    18    63    61   ar
    19    47    48    1
    20    86    87    2
    21    48    51    1
    22    61    62   ar
    23    61    60    1
    24    55    56    1
    25    60    59    1
    26    51    53    1
    27    51    52    1
    28    29    28    2
    29    59    56    1
    30    56    57    1
    31    79    81   ar
    32    79    77   ar
    33    52    54    1
    34    28    27    1
    35    81    82   ar
    36    67    66    2
    37    74    75    2
    38    74    73    1
    39    97    96    1
    40    97    98    1
    41    64    57   am
    42    64    65    1
    43    57    58    2
    44    76    77    1
    45    76    73    1
    46    66    65    1
    47    77    78   ar
    48    95    96    1
    49    95    92    1
    50    72    73    1
    51    82    83    1
    52    82    80   ar
    53    27    30    1
    54    27    26    1
    55    91    92    1
    56    65    68    1
    57    92    93    1
    58    12    11    2
    59    16    15    1
    60    16    17    1
    61    30    31    1
    62    21    20    2
    63    15    14    1
    64    68    69    1
    65    78    80   ar
    66    26    20   am
    67    13    14    1
    68    13    10    1
    69    20    19    1
    70    11    10    1
    71    11    18   am
    72    69    70    1
    73    69    71    1
    74    93    94    2
    75    10     9    1
    76    31    32   ar
    77    31    33   ar
    78    32    34   ar
    79    19    18    1
    80    19    22    1
    81    33    35   ar
    82    34    36   ar
    83     9     3   am
    84    22    23    1
    85     4     3    2
    86   112   110   ar
    87   112   114   ar
    88   110   109   ar
    89   115   114    1
    90     3     2    1
    91    35    36   ar
    92   114   113   ar
    93    23    24    1
    94    99   100    1
    95   109   108    1
    96   109   111   ar
    97   113   111   ar
    98   108   105    1
    99   103   100    1
   100   100   101    1
   101    25    24    1
   102     2     1    1
   103     2     5    1
   104   105   104    1
   105   105   106    1
   106     5     6    1
   107   123   121   am
   108   101   102    2
   109   146   148   ar
   110   146   145   ar
   111   148   149   ar
   112   106   107    2
   113   106   116   am
   114   122   121    2
   115   121   120    1
   116   145   144    1
   117   145   147   ar
   118   149   151   ar
   119   149   147   ar
   120     6     8    1
   121     6     7    1
   122   116   117    1
   123   144   141    1
   124   151   153   ar
   125   147   150   ar
   126   143   142    2
   127   120   117    1
   128   141   142    1
   129   141   140    1
   130   117   118    1
   131   153   152   ar
   132   150   152   ar
   133   139   137   ar
   134   140   133   am
   135   118   119    2
   136   137   136    1
   137   137   138   ar
   138   134   133    2
   139   136   135    1
   140   133   132    1
   141   129   128    1
   142   135   132    1
   143   132   131    1
   144   128   130    1
   145   128   125    1
   146   131   126   am
   147   127   126    2
   148   126   125    1
   149   125   124    1
