@<TRIPOS>MOLECULE
tmp/6niqA00.pdb
 83 80 0 0 0
SMALL
GASTEIGER

@<TRIPOS>ATOM
      1  N         21.2530  -22.0700  -32.3830 N.3    60  ARG60      -0.1245
      2  CA        21.6200  -23.2280  -33.2020 C.3    60  ARG60       0.1563
      3  C         22.9570  -23.0040  -33.9090 C.2    60  ARG60       0.2260
      4  O         23.8120  -23.9120  -33.9460 O.2    60  ARG60      -0.2867
      5  CB        20.4880  -23.5490  -34.1900 C.3    60  ARG60       0.0307
      6  CG        19.2610  -24.1330  -33.4590 C.3    60  ARG60       0.0489
      7  CD        17.9770  -24.0720  -34.3170 C.3    60  ARG60       0.2205
      8  NE        18.0620  -24.7870  -35.5930 N.pl3  60  ARG60      -0.0865
      9  CZ        17.9520  -26.1090  -35.7240 C.cat  60  ARG60       0.5346
     10  NH1       17.7620  -26.8820  -34.6560 N.pl3  60  ARG60       0.1354
     11  NH2       17.9840  -26.6590  -36.9210 N.pl3  60  ARG60       0.1354
     12  N         26.6020  -25.1920  -33.8230 N.3    64  LYS64      -0.1231
     13  CA        26.9630  -25.7790  -35.1100 C.3    64  LYS64       0.1693
     14  C         25.8280  -26.6210  -35.6870 C.2    64  LYS64       0.2592
     15  O         26.0740  -27.5690  -36.4360 O.2    64  LYS64      -0.2718
     16  CB        28.2540  -26.6070  -35.0320 C.3    64  LYS64       0.0285
     17  CG        29.4560  -25.8820  -34.4850 C.3    64  LYS64       0.0035
     18  CD        29.6000  -24.5130  -35.1280 C.3    64  LYS64       0.0206
     19  CE        31.0780  -24.0720  -35.2670 C.3    64  LYS64       0.1093
     20  NZ        31.2640  -22.7170  -34.6520 N.3    64  LYS64      -0.1314
     21  N         24.5870  -26.2720  -35.3510 N.am   65  GLN65      -0.1966
     22  CA        23.3890  -26.9040  -35.8790 C.3    65  GLN65       0.1733
     23  C         22.7630  -26.1000  -37.0040 C.2    65  GLN65       0.2616
     24  O         21.7960  -26.5630  -37.6260 O.2    65  GLN65      -0.2715
     25  CB        22.3430  -27.0530  -34.7590 C.3    65  GLN65       0.0408
     26  CG        22.7890  -27.9130  -33.5870 C.3    65  GLN65       0.0908
     27  CD        21.7790  -27.9340  -32.4420 C.2    65  GLN65       0.2608
     28  OE1       20.6820  -27.3750  -32.5440 O.2    65  GLN65      -0.2717
     29  NE2       22.1410  -28.5760  -31.3540 N.am   65  GLN65      -0.0878
     30  N         23.2750  -24.9020  -37.2570 N.am   66  GLU66      -0.1963
     31  CA        22.7760  -24.0330  -38.3140 C.3    66  GLU66       0.1733
     32  C         23.9470  -23.1860  -38.7640 C.2    66  GLU66       0.2616
     33  O         24.9400  -23.0560  -38.0430 O.2    66  GLU66      -0.2715
     34  CB        21.6360  -23.1550  -37.7590 C.3    66  GLU66       0.0429
     35  CG        21.0040  -22.2070  -38.7780 C.3    66  GLU66       0.1163
     36  CD        20.4750  -22.9610  -39.9840 C.2    66  GLU66       0.3649
     37  OE1       19.2730  -23.2990  -40.0000 O.co2  66  GLU66      -0.2457
     38  OE2       21.2530  -23.2360  -40.9320 O.co2  66  GLU66      -0.2457
     39  N         23.8480  -22.6560  -39.9890 N.am   67  ASN67      -0.1972
     40  CA        24.9030  -21.8430  -40.5730 C.3    67  ASN67       0.1688
     41  C         24.2510  -20.5800  -41.1340 C.2    67  ASN67       0.2292
     42  O         23.3140  -20.6760  -41.9240 O.2    67  ASN67      -0.2864
     43  CB        25.5710  -22.6680  -41.6880 C.3    67  ASN67       0.1181
     44  CG        26.7790  -21.9820  -42.3080 C.2    67  ASN67       0.2629
     45  OD1       26.8210  -20.7790  -42.4560 O.2    67  ASN67      -0.2716
     46  ND2       27.7610  -22.7650  -42.7040 N.am   67  ASN67      -0.0877
     47  N         23.8090  -20.4650  -44.9100 N.3    70  ARG70      -0.1245
     48  CA        23.0750  -21.4860  -45.6540 C.3    70  ARG70       0.1563
     49  C         21.9750  -20.8190  -46.4680 C.2    70  ARG70       0.2260
     50  O         21.2630  -19.9490  -45.9620 O.2    70  ARG70      -0.2867
     51  CB        22.4570  -22.4670  -44.6940 C.3    70  ARG70       0.0307
     52  CG        21.6660  -23.6010  -45.4140 C.3    70  ARG70       0.0489
     53  CD        21.3010  -24.6830  -44.3750 C.3    70  ARG70       0.2205
     54  NE        20.2760  -24.2580  -43.3900 N.pl3  70  ARG70      -0.0865
     55  CZ        18.9540  -24.3660  -43.5670 C.cat  70  ARG70       0.5346
     56  NH1       18.4480  -24.8140  -44.7270 N.pl3  70  ARG70       0.1354
     57  NH2       18.1160  -24.0170  -42.5910 N.pl3  70  ARG70       0.1354
     58  N         10.3510  -22.8820  -40.1640 N.3   117  ALA117     -0.1231
     59  CA        10.5070  -24.1970  -40.7930 C.3   117  ALA117      0.1694
     60  C         11.8910  -24.7790  -40.5880 C.2   117  ALA117      0.2593
     61  O         12.0430  -25.9920  -40.7290 O.2   117  ALA117     -0.2718
     62  CB        10.1520  -24.0930  -42.2840 C.3   117  ALA117      0.0304
     63  N         12.9040  -23.9630  -40.2960 N.am  118  SER118     -0.1938
     64  CA        14.2700  -24.4230  -40.1020 C.3   118  SER118      0.2055
     65  C         14.4910  -25.1200  -38.7610 C.2   118  SER118      0.2643
     66  O         15.4980  -25.8150  -38.6070 O.2   118  SER118     -0.2714
     67  CB        15.2510  -23.2580  -40.2160 C.3   118  SER118      0.2130
     68  OG        15.2870  -22.4780  -38.9880 O.3   118  SER118     -0.2179
     69  N         13.5750  -24.9690  -37.7870 N.am  119  PHE119     -0.1959
     70  CA        13.9050  -25.4190  -36.4340 C.3   119  PHE119      0.1771
     71  C         12.7520  -26.0900  -35.7160 C.2   119  PHE119      0.2620
     72  O         12.7910  -26.2220  -34.4750 O.2   119  PHE119     -0.2715
     73  CB        14.5370  -24.2760  -35.6120 C.3   119  PHE119      0.0574
     74  CG        13.6850  -23.0050  -35.4720 C.ar  119  PHE119     -0.0200
     75  CD1       12.3470  -23.0640  -35.0520 C.ar  119  PHE119     -0.0042
     76  CD2       14.2700  -21.7530  -35.6420 C.ar  119  PHE119     -0.0042
     77  CE1       11.5730  -21.8840  -34.8550 C.ar  119  PHE119     -0.0003
     78  CE2       13.5010  -20.5890  -35.4670 C.ar  119  PHE119     -0.0003
     79  CZ        12.1750  -20.6450  -35.0720 C.ar  119  PHE119     -0.0000
     80  N         11.7430  -26.5710  -36.4420 N.am  120  GLY120     -0.1954
     81  CA        10.6460  -27.2810  -35.8010 C.3   120  GLY120      0.1869
     82  C          9.3960  -26.4580  -35.5990 C.2   120  GLY120      0.2309
     83  O          8.5160  -26.8780  -34.8350 O.2   120  GLY120     -0.2863
@<TRIPOS>BOND
     1    49    50    2
     2    49    48    1
     3    48    47    1
     4    48    51    1
     5    52    51    1
     6    52    53    1
     7    56    55    1
     8    53    54    1
     9    55    54    2
    10    55    57    1
    11    46    44   am
    12    45    44    2
    13    44    43    1
    14    62    59    1
    15    42    41    2
    16    43    40    1
    17    41    40    1
    18    38    36   ar
    19    59    60    1
    20    59    58    1
    21    61    60    2
    22    60    63   am
    23    40    39    1
    24    63    64    1
    25    67    64    1
    26    67    68    1
    27    64    65    1
    28    37    36   ar
    29    39    32   am
    30    36    35    1
    31    35    34    1
    32    32    31    1
    33    32    33    2
    34    65    66    2
    35    65    69   am
    36    31    34    1
    37    31    30    1
    38    69    70    1
    39    24    23    2
    40    30    23   am
    41    23    22    1
    42    11     9    1
    43    80    81    1
    44    80    71   am
    45    15    14    2
    46    70    71    1
    47    70    73    1
    48    22    21    1
    49    22    25    1
    50    81    82    1
    51     9     8    2
    52     9    10    1
    53    71    72    2
    54    14    21   am
    55    14    13    1
    56    76    74   ar
    57    76    78   ar
    58    73    74    1
    59    82    83    2
    60     8     7    1
    61    74    75   ar
    62    78    79   ar
    63    19    18    1
    64    19    20    1
    65    18    17    1
    66    13    16    1
    67    13    12    1
    68    79    77   ar
    69    75    77   ar
    70    16    17    1
    71    25    26    1
    72     7     6    1
    73     5     6    1
    74     5     2    1
    75     4     3    2
    76     3     2    1
    77    26    27    1
    78     2     1    1
    79    28    27    2
    80    27    29   am
