@<TRIPOS>MOLECULE
tmp/6njeA00.pdb
 112 107 0 0 0
SMALL
GASTEIGER

@<TRIPOS>ATOM
      1  N         12.1910   35.8950   63.6970 N.3    15  ARG15      -0.1245
      2  CA        13.5700   36.0650   63.3060 C.3    15  ARG15       0.1563
      3  C         14.2520   34.7110   63.4090 C.2    15  ARG15       0.2260
      4  O         14.5010   34.2050   64.5150 O.2    15  ARG15      -0.2867
      5  CB        14.3230   37.1530   64.0910 C.3    15  ARG15       0.0307
      6  CG        15.6820   37.3830   63.4310 C.3    15  ARG15       0.0489
      7  CD        16.6680   38.1390   64.2640 C.3    15  ARG15       0.2205
      8  NE        17.7940   38.5630   63.4270 N.pl3  15  ARG15      -0.0865
      9  CZ        18.7660   39.3710   63.8180 C.cat  15  ARG15       0.5346
     10  NH1       18.8040   39.8200   65.0630 N.pl3  15  ARG15       0.1354
     11  NH2       19.7210   39.7220   62.9720 N.pl3  15  ARG15       0.1354
     12  N         17.5250   32.8160   63.1080 N.3    17  ARG17      -0.1231
     13  CA        18.9550   33.0950   63.1210 C.3    17  ARG17       0.1679
     14  C         19.7340   32.0760   62.2680 C.2    17  ARG17       0.2434
     15  O         19.2170   30.9880   61.9660 O.2    17  ARG17      -0.2733
     16  CB        19.5180   33.1730   64.5640 C.3    17  ARG17       0.0321
     17  CG        19.5430   31.8700   65.3790 C.3    17  ARG17       0.0489
     18  CD        20.7040   31.9030   66.3790 C.3    17  ARG17       0.2205
     19  NE        20.6750   30.8250   67.3740 N.pl3  17  ARG17      -0.0865
     20  CZ        21.0430   29.5660   67.1360 C.cat  17  ARG17       0.5346
     21  NH1       20.9610   28.6530   68.0920 N.pl3  17  ARG17       0.1354
     22  NH2       21.4480   29.2030   65.9300 N.pl3  17  ARG17       0.1354
     23  N         20.9980   32.3780   61.8870 N.am   18  PRO18      -0.2729
     24  CA        21.7910   31.3570   61.1810 C.3    18  PRO18       0.1401
     25  C         22.2700   30.2680   62.1580 C.2    18  PRO18       0.2269
     26  O         22.0390   30.3760   63.3730 O.2    18  PRO18      -0.2865
     27  CB        22.9810   32.1510   60.6090 C.3    18  PRO18       0.0296
     28  CG        22.8350   33.5610   61.1050 C.3    18  PRO18       0.0237
     29  CD        21.7880   33.5970   62.1480 C.3    18  PRO18       0.0939
     30  N         24.8370   28.3470   64.5310 N.3    20  VAL20      -0.1245
     31  CA        25.9180   28.8440   65.4130 C.3    20  VAL20       0.1561
     32  C         26.6380   27.6940   66.1050 C.2    20  VAL20       0.2260
     33  O         27.5830   27.1510   65.5540 O.2    20  VAL20      -0.2867
     34  CB        25.4860   29.9480   66.4280 C.3    20  VAL20       0.0252
     35  CG1       24.8440   31.1470   65.7300 C.3    20  VAL20       0.0019
     36  CG2       24.5690   29.3930   67.5120 C.3    20  VAL20       0.0019
     37  N         19.1480   38.2560   57.4970 N.3    47  SER47      -0.1217
     38  CA        18.6720   39.5210   58.0660 C.3    47  SER47       0.1889
     39  C         19.6090   40.0050   59.1680 C.2    47  SER47       0.2288
     40  O         19.9230   39.2530   60.0820 O.2    47  SER47      -0.2866
     41  CB        17.2260   39.4160   58.5430 C.3    47  SER47       0.2089
     42  OG        17.1650   38.7180   59.7780 O.3    47  SER47      -0.2183
     43  N         12.9080   30.3900   72.5690 N.3    77  PRO77      -0.2102
     44  CA        13.7140   29.5310   73.4630 C.3    77  PRO77       0.1504
     45  C         15.1080   30.0640   73.7140 C.2    77  PRO77       0.2576
     46  O         15.6420   30.7780   72.8600 O.2    77  PRO77      -0.2718
     47  CB        13.7740   28.1920   72.7290 C.3    77  PRO77       0.0282
     48  CG        13.4830   28.5200   71.2880 C.3    77  PRO77       0.0208
     49  CD        12.6050   29.7230   71.2800 C.3    77  PRO77       0.0893
     50  N         15.7110   29.6930   74.8590 N.am   78  THR78      -0.1939
     51  CA        17.1100   30.0310   75.1650 C.3    78  THR78       0.2028
     52  C         17.9710   29.4630   74.0330 C.2    78  THR78       0.2642
     53  O         17.6970   28.3580   73.5370 O.2    78  THR78      -0.2714
     54  CB        17.5290   29.5430   76.5700 C.3    78  THR78       0.1808
     55  OG1       16.6260   30.0870   77.5160 O.3    78  THR78      -0.2208
     56  CG2       18.9380   29.9940   76.9610 C.3    78  THR78       0.0379
     57  N         18.9130   30.2740   73.5680 N.am   79  GLY79      -0.1954
     58  CA        19.8000   29.9600   72.4510 C.3    79  GLY79       0.1869
     59  C         19.2890   30.4780   71.1170 C.2    79  GLY79       0.2309
     60  O         20.0500   30.5240   70.1510 O.2    79  GLY79      -0.2863
     61  N         18.2470   33.5800   70.1560 N.3    81  GLY81      -0.1210
     62  CA        18.7050   34.8950   69.7370 C.3    81  GLY81       0.1956
     63  C         17.9230   36.0940   70.2120 C.2    81  GLY81       0.2612
     64  O         18.0050   37.1380   69.5700 O.2    81  GLY81      -0.2717
     65  N         17.2080   35.9850   71.3590 N.am   82  LYS82      -0.1965
     66  CA        16.4570   37.1040   71.9490 C.3    82  LYS82       0.1728
     67  C         17.3910   38.2360   72.3970 C.2    82  LYS82       0.2617
     68  O         17.1430   39.3830   72.0440 O.2    82  LYS82      -0.2715
     69  CB        15.6230   36.6550   73.1610 C.3    82  LYS82       0.0311
     70  CG        14.4940   35.6640   72.8530 C.3    82  LYS82       0.0038
     71  CD        13.7060   35.3350   74.1390 C.3    82  LYS82       0.0206
     72  CE        14.5370   34.6430   75.2080 C.3    82  LYS82       0.1093
     73  NZ        15.1450   33.3620   74.7420 N.3    82  LYS82      -0.1314
     74  N         18.4600   37.9170   73.1750 N.am   83  THR83      -0.1937
     75  CA        19.4160   38.9320   73.6510 C.3    83  THR83       0.2028
     76  C         20.2470   39.5220   72.5030 C.2    83  THR83       0.2642
     77  O         20.5470   40.7170   72.5270 O.2    83  THR83      -0.2714
     78  CB        20.2720   38.3830   74.7810 C.3    83  THR83       0.1808
     79  OG1       19.3950   37.8210   75.7420 O.3    83  THR83      -0.2208
     80  CG2       21.1770   39.4710   75.4390 C.3    83  THR83       0.0379
     81  N         20.5960   38.6930   71.4980 N.am   84  HIS84      -0.1959
     82  CA        21.3140   39.1690   70.3210 C.3    84  HIS84       0.1787
     83  C         20.4410   40.2300   69.6230 C.2    84  HIS84       0.2620
     84  O         20.9290   41.3160   69.3380 O.2    84  HIS84      -0.2715
     85  CB        21.6570   38.0260   69.3590 C.3    84  HIS84       0.0785
     86  CG        22.3360   38.5070   68.0990 C.ar   84  HIS84       0.0821
     87  ND1       23.6820   38.8520   68.0870 N.ar   84  HIS84      -0.2267
     88  CD2       21.8250   38.7260   66.8690 C.ar   84  HIS84       0.1154
     89  CE1       23.9420   39.2420   66.8540 C.ar   84  HIS84       0.1986
     90  NE2       22.8650   39.1640   66.0780 N.ar   84  HIS84      -0.2212
     91  N         19.1390   39.9410   69.4280 N.am   85  THR85      -0.1951
     92  CA        18.1790   40.8690   68.8050 C.3    85  THR85       0.1897
     93  C         17.9310   42.1210   69.6610 C.2    85  THR85       0.2313
     94  O         17.9210   43.2430   69.1450 O.2    85  THR85      -0.2863
     95  CB        16.8730   40.1020   68.5230 C.3    85  THR85       0.1794
     96  OG1       17.2090   38.9700   67.7510 O.3    85  THR85      -0.2208
     97  CG2       15.8160   40.9280   67.7970 C.3    85  THR85       0.0378
     98  N         27.7940   44.1290   66.5840 N.3    92  GLN92      -0.1245
     99  CA        26.4470   44.0120   66.0230 C.3    92  GLN92       0.1566
    100  C         25.4470   44.5070   67.0620 C.2    92  GLN92       0.2260
    101  O         24.8750   43.6970   67.8060 O.2    92  GLN92      -0.2867
    102  CB        26.1550   42.5600   65.6130 C.3    92  GLN92       0.0367
    103  CG        27.0590   42.0260   64.4930 C.3    92  GLN92       0.0905
    104  CD        26.9130   40.5400   64.3210 C.2    92  GLN92       0.2608
    105  OE1       27.0340   39.7670   65.2750 O.2    92  GLN92      -0.2717
    106  NE2       26.6340   40.1050   63.1000 N.am   92  GLN92      -0.0878
    107  N         17.8300   33.8660   81.8370 N.3   182  SER182     -0.1217
    108  CA        17.1440   32.9990   80.8900 C.3   182  SER182      0.1889
    109  C         15.7430   32.6860   81.4060 C.2   182  SER182      0.2288
    110  O         14.8960   32.2300   80.6450 O.2   182  SER182     -0.2866
    111  CB        17.9240   31.6950   80.7270 C.3   182  SER182      0.2089
    112  OG        19.1360   31.9380   80.0340 O.3   182  SER182     -0.2183
@<TRIPOS>BOND
     1    37    38    1
     2    38    41    1
     3    38    39    1
     4    41    42    1
     5    39    40    2
     6    27    28    1
     7    27    24    1
     8    28    29    1
     9    24    23    1
    10    24    25    1
    11    23    29    1
    12    23    14   am
    13    15    14    2
    14    25    26    2
    15    14    13    1
    16    11     9    1
    17   106   104   am
    18    12    13    1
    19    13    16    1
    20     2     3    1
    21     2     1    1
    22     2     5    1
    23     3     4    2
    24     8     9    2
    25     8     7    1
    26     6     5    1
    27     6     7    1
    28     9    10    1
    29   104   103    1
    30   104   105    2
    31   103   102    1
    32    30    31    1
    33    16    17    1
    34    17    18    1
    35    31    32    1
    36    31    34    1
    37    33    32    2
    38   102    99    1
    39    35    34    1
    40    22    20    1
    41    99    98    1
    42    99   100    1
    43    90    89   ar
    44    90    88   ar
    45    18    19    1
    46    34    36    1
    47    89    87   ar
    48    88    86   ar
    49   100   101    2
    50    20    19    2
    51    20    21    1
    52    96    95    1
    53    97    95    1
    54    87    86   ar
    55    86    85    1
    56    95    92    1
    57    92    91    1
    58    92    93    1
    59    94    93    2
    60    84    83    2
    61    85    82    1
    62    91    83   am
    63    64    63    2
    64    83    82    1
    65    62    61    1
    66    62    63    1
    67    60    59    2
    68    63    65   am
    69    82    81    1
    70    59    58    1
    71    49    48    1
    72    49    43    1
    73    48    47    1
    74    65    66    1
    75    81    76   am
    76    66    67    1
    77    66    69    1
    78    68    67    2
    79    67    74   am
    80    58    57    1
    81    76    77    2
    82    76    75    1
    83    43    44    1
    84    47    44    1
    85    70    69    1
    86    70    71    1
    87    46    45    2
    88    74    75    1
    89    44    45    1
    90    53    52    2
    91    57    52   am
    92    75    78    1
    93    45    50   am
    94    52    51    1
    95    71    72    1
    96    73    72    1
    97    78    80    1
    98    78    79    1
    99    50    51    1
   100    51    54    1
   101    54    56    1
   102    54    55    1
   103   112   111    1
   104   110   109    2
   105   111   108    1
   106   108   109    1
   107   108   107    1
