@<TRIPOS>MOLECULE
tmp/6njpD00.pdb
 119 115 0 0 0
SMALL
GASTEIGER

@<TRIPOS>ATOM
      1  N        106.5870  122.9620   98.1630 N.3   146  SER146     -0.1202
      2  CA       105.9540  124.0690   98.8510 C.3   146  SER146      0.2020
      3  C        107.0240  125.0270   99.3410 C.2   146  SER146      0.2619
      4  O        107.8750  124.6540  100.1450 O.2   146  SER146     -0.2717
      5  CB       105.1150  123.5390  100.0050 C.3   146  SER146      0.2103
      6  OG       104.3950  124.5850  100.6070 O.3   146  SER146     -0.2182
      7  N        106.9860  126.2550   98.8560 N.am  147  GLY147     -0.1942
      8  CA       107.9560  127.2340   99.2920 C.3   147  GLY147      0.2014
      9  C        109.3530  126.9930   98.7900 C.2   147  GLY147      0.2639
     10  O        110.3060  127.2910   99.5060 O.2   147  GLY147     -0.2714
     11  N        109.5090  126.4530   97.5760 N.am  148  VAL148     -0.1963
     12  CA       110.8430  126.1920   97.0530 C.3   148  VAL148      0.1727
     13  C        111.2650  127.3200   96.1240 C.2   148  VAL148      0.2617
     14  O        112.0970  128.1450   96.4920 O.2   148  VAL148     -0.2715
     15  CB       110.8930  124.8420   96.3250 C.3   148  VAL148      0.0290
     16  CG1      112.2350  124.6400   95.7440 C.3   148  VAL148      0.0023
     17  CG2      110.5890  123.7270   97.2740 C.3   148  VAL148      0.0023
     18  N        110.6790  127.4180   94.9410 N.am  149  GLY149     -0.1940
     19  CA       111.0740  128.5360   94.1030 C.3   149  GLY149      0.2014
     20  C        110.0430  129.1310   93.1630 C.2   149  GLY149      0.2639
     21  O        110.3420  130.1180   92.4950 O.2   149  GLY149     -0.2714
     22  N        108.8210  128.5940   93.1420 N.am  150  LYS150     -0.1963
     23  CA       107.9070  128.8480   92.0340 C.3   150  LYS150      0.1728
     24  C        107.6030  130.3260   91.8630 C.2   150  LYS150      0.2617
     25  O        107.7620  130.8680   90.7710 O.2   150  LYS150     -0.2715
     26  CB       106.6210  128.0690   92.2320 C.3   150  LYS150      0.0311
     27  CG       106.7890  126.6180   92.0190 C.3   150  LYS150      0.0038
     28  CD       105.5110  125.9010   92.2670 C.3   150  LYS150      0.0206
     29  CE       105.5600  125.2270   93.5820 C.3   150  LYS150      0.1093
     30  NZ       105.5720  126.2710   94.5920 N.3   150  LYS150     -0.1314
     31  N        107.1280  131.0030   92.9000 N.am  151  SER151     -0.1936
     32  CA       106.7670  132.3980   92.6760 C.3   151  SER151      0.2055
     33  C        107.9830  133.2280   92.2930 C.2   151  SER151      0.2644
     34  O        107.9280  133.9900   91.3260 O.2   151  SER151     -0.2714
     35  CB       106.0580  133.0080   93.8880 C.3   151  SER151      0.2130
     36  OG       104.7360  132.5050   94.0380 O.3   151  SER151     -0.2179
     37  N        109.1020  133.0730   92.9990 N.am  152  THR152     -0.1936
     38  CA       110.2580  133.9120   92.7070 C.3   152  THR152      0.2028
     39  C        110.6980  133.7770   91.2520 C.2   152  THR152      0.2642
     40  O        110.8600  134.7750   90.5480 O.2   152  THR152     -0.2714
     41  CB       111.3940  133.5630   93.6500 C.3   152  THR152      0.1808
     42  OG1      110.9910  133.9120   94.9760 O.3   152  THR152     -0.2208
     43  CG2      112.6460  134.3270   93.2780 C.3   152  THR152      0.0379
     44  N        110.8880  132.5500   90.7850 N.am  153  LEU153     -0.1977
     45  CA       111.2650  132.3070   89.3970 C.3   153  LEU153      0.1596
     46  C        110.2390  132.8650   88.4250 C.2   153  LEU153      0.2287
     47  O        110.6120  133.3530   87.3540 O.2   153  LEU153     -0.2864
     48  CB       111.4510  130.8120   89.1600 C.3   153  LEU153      0.0297
     49  CG       111.8700  130.3030   87.7910 C.3   153  LEU153      0.0022
     50  CD1      113.2360  130.7980   87.4230 C.3   153  LEU153      0.0001
     51  CD2      111.8540  128.8040   87.8160 C.3   153  LEU153      0.0001
     52  N        111.0180  136.4810   88.2350 N.3   156  MET156     -0.1245
     53  CA       112.1850  136.6850   87.3770 C.3   156  MET156      0.1570
     54  C        111.8170  136.5860   85.9020 C.2   156  MET156      0.2261
     55  O        112.3330  137.3410   85.0700 O.2   156  MET156     -0.2867
     56  CB       113.2650  135.6590   87.7070 C.3   156  MET156      0.0387
     57  CG       113.9190  135.8260   89.0460 C.3   156  MET156      0.0595
     58  SD       115.0310  134.4550   89.3660 S.3   156  MET156     -0.1393
     59  CE       116.2610  134.7490   88.1150 C.3   156  MET156      0.0692
     60  N         98.2970  133.6650   98.4370 N.3   174  ARG174     -0.1245
     61  CA        98.1270  134.5560   99.5840 C.3   174  ARG174      0.1563
     62  C         97.8980  135.9930   99.1210 C.2   174  ARG174      0.2260
     63  O         98.4730  136.4380   98.1210 O.2   174  ARG174     -0.2867
     64  CB        99.3460  134.4700  100.4990 C.3   174  ARG174      0.0307
     65  CG       100.5990  134.7470   99.7530 C.3   174  ARG174      0.0489
     66  CD       101.8090  134.7570  100.6270 C.3   174  ARG174      0.2205
     67  NE       101.9920  133.4960  101.3290 N.pl3 174  ARG174     -0.0865
     68  CZ       102.4680  132.3890  100.7710 C.cat 174  ARG174      0.5346
     69  NH1      102.6190  131.2950  101.4940 N.pl3 174  ARG174      0.1354
     70  NH2      102.7510  132.3580   99.4810 N.pl3 174  ARG174      0.1354
     71  N        100.6440  138.8200   98.2590 N.3   177  GLU177     -0.1245
     72  CA       101.5070  138.7830   97.0820 C.3   177  GLU177      0.1567
     73  C        101.0450  139.6610   95.9240 C.2   177  GLU177      0.2260
     74  O        101.7810  139.7670   94.9400 O.2   177  GLU177     -0.2867
     75  CB       101.6570  137.3530   96.5650 C.3   177  GLU177      0.0388
     76  CG       102.5360  136.4690   97.4290 C.3   177  GLU177      0.1160
     77  CD       102.6150  135.0320   96.9000 C.2   177  GLU177      0.3649
     78  OE1      101.8940  134.7090   95.9160 O.co2 177  GLU177     -0.2457
     79  OE2      103.3900  134.2230   97.4710 O.co2 177  GLU177     -0.2457
     80  N        120.3300  128.8360   94.0900 N.3   322  PHE322     -0.1228
     81  CA       119.1020  129.3970   93.5560 C.3   322  PHE322      0.1721
     82  C        119.3330  130.0180   92.1850 C.2   322  PHE322      0.2437
     83  O        120.3440  130.6900   91.9810 O.2   322  PHE322     -0.2733
     84  CB       118.5430  130.4560   94.4980 C.3   322  PHE322      0.0547
     85  CG       118.0260  129.9060   95.7860 C.ar  322  PHE322     -0.0202
     86  CD1      116.7810  129.3150   95.8440 C.ar  322  PHE322     -0.0042
     87  CD2      118.7720  130.0000   96.9410 C.ar  322  PHE322     -0.0042
     88  CE1      116.2970  128.8180   97.0250 C.ar  322  PHE322     -0.0003
     89  CE2      118.2880  129.5080   98.1240 C.ar  322  PHE322     -0.0003
     90  CZ       117.0500  128.9130   98.1630 C.ar  322  PHE322     -0.0000
     91  N        118.4320  129.8590   91.1970 N.am  323  PRO323     -0.2729
     92  CA       117.1650  129.1260   91.2030 C.3   323  PRO323      0.1401
     93  C        117.3910  127.6290   91.1890 C.2   323  PRO323      0.2269
     94  O        118.3010  127.1460   90.5280 O.2   323  PRO323     -0.2865
     95  CB       116.4800  129.6010   89.9260 C.3   323  PRO323      0.0296
     96  CG       117.5670  129.9980   89.0510 C.3   323  PRO323      0.0237
     97  CD       118.6360  130.5540   89.9190 C.3   323  PRO323      0.0939
     98  N        121.7970  131.9760   89.8080 N.3   393  GLN393     -0.1231
     99  CA       121.5970  133.3470   89.3710 C.3   393  GLN393      0.1698
    100  C        120.8250  134.1210   90.4280 C.2   393  GLN393      0.2593
    101  O        119.9650  133.5620   91.1080 O.2   393  GLN393     -0.2718
    102  CB       120.8510  133.3450   88.0360 C.3   393  GLN393      0.0381
    103  CG       120.5470  134.6790   87.4290 C.3   393  GLN393      0.0905
    104  CD       119.8840  134.5250   86.0980 C.2   393  GLN393      0.2608
    105  OE1      119.7340  133.4120   85.6090 O.2   393  GLN393     -0.2717
    106  NE2      119.4470  135.6290   85.5150 N.am  393  GLN393     -0.0878
    107  N        121.1470  135.4040   90.5670 N.am  394  SER394     -0.1938
    108  CA       120.4390  136.2760   91.4860 C.3   394  SER394      0.2055
    109  C        119.0550  136.6140   90.9490 C.2   394  SER394      0.2643
    110  O        118.7350  136.3780   89.7850 O.2   394  SER394     -0.2714
    111  CB       121.2290  137.5600   91.7210 C.3   394  SER394      0.2130
    112  OG       120.5410  138.4240   92.6010 O.3   394  SER394     -0.2179
    113  N        118.2320  137.1890   91.8240 N.am  395  THR395     -0.1950
    114  CA       116.8440  137.4800   91.4840 C.3   395  THR395      0.1897
    115  C        116.7210  138.7400   90.6410 C.2   395  THR395      0.2313
    116  O        116.0240  138.7420   89.6230 O.2   395  THR395     -0.2863
    117  CB       116.0210  137.6090   92.7650 C.3   395  THR395      0.1794
    118  OG1      116.0920  136.3830   93.4990 O.3   395  THR395     -0.2208
    119  CG2      114.5710  137.9080   92.4520 C.3   395  THR395      0.0378
@<TRIPOS>BOND
     1    55    54    2
     2   106   104   am
     3   105   104    2
     4    54    53    1
     5   104   103    1
     6    47    46    2
     7    53    56    1
     8    53    52    1
     9    50    49    1
    10   103   102    1
    11    56    57    1
    12    49    51    1
    13    49    48    1
    14   102    99    1
    15    59    58    1
    16    46    45    1
    17    57    58    1
    18    96    97    1
    19    96    95    1
    20    48    45    1
    21    99    98    1
    22    99   100    1
    23    45    44    1
    24   116   115    2
    25   110   109    2
    26    97    91    1
    27    95    92    1
    28   100   107   am
    29   100   101    2
    30    94    93    2
    31    40    39    2
    32   107   108    1
    33   115   114    1
    34    25    24    2
    35    44    39   am
    36   109   108    1
    37   109   113   am
    38    93    92    1
    39    91    92    1
    40    91    82   am
    41    39    38    1
    42    34    33    2
    43   114   113    1
    44   114   117    1
    45   108   111    1
    46   111   112    1
    47    24    23    1
    48    24    31   am
    49    83    82    2
    50    27    26    1
    51    27    28    1
    52    23    26    1
    53    23    22    1
    54    82    81    1
    55    28    29    1
    56    33    32    1
    57    33    37   am
    58   119   117    1
    59    21    20    2
    60    32    31    1
    61    32    35    1
    62    38    37    1
    63    38    41    1
    64   117   118    1
    65    22    20   am
    66    20    19    1
    67    43    41    1
    68    81    80    1
    69    81    84    1
    70    29    30    1
    71    41    42    1
    72    35    36    1
    73    19    18    1
    74    84    85    1
    75    74    73    2
    76    18    13   am
    77    16    15    1
    78    85    86   ar
    79    85    87   ar
    80    86    88   ar
    81    78    77   ar
    82    73    72    1
    83    13    14    2
    84    13    12    1
    85    15    12    1
    86    15    17    1
    87    75    72    1
    88    75    76    1
    89    77    76    1
    90    77    79   ar
    91    87    89   ar
    92    88    90   ar
    93    12    11    1
    94    72    71    1
    95    11     9   am
    96    63    62    2
    97    89    90   ar
    98     1     2    1
    99    60    61    1
   100     9     8    1
   101     9    10    2
   102     2     3    1
   103     2     5    1
   104     7     8    1
   105     7     3   am
   106    62    61    1
   107     3     4    2
   108    70    68    1
   109    61    64    1
   110    65    64    1
   111    65    66    1
   112     5     6    1
   113    66    67    1
   114    68    67    2
   115    68    69    1
