@<TRIPOS>MOLECULE
tmp/6nkjA01.pdb
 123 113 0 0 0
SMALL
GASTEIGER

@<TRIPOS>ATOM
      1  N         41.4530   27.0830   31.3620 N.3    23  LYS23      -0.1231
      2  CA        40.1860   27.2440   30.6250 C.3    23  LYS23       0.1693
      3  C         40.3770   28.2710   29.4940 C.2    23  LYS23       0.2592
      4  O         39.9680   28.0170   28.3510 O.2    23  LYS23      -0.2718
      5  CB        39.1170   27.7500   31.5890 C.3    23  LYS23       0.0285
      6  CG        37.7590   27.9910   30.9340 C.3    23  LYS23       0.0035
      7  CD        36.7910   28.6870   31.8460 C.3    23  LYS23       0.0206
      8  CE        37.1150   30.1340   32.1210 C.3    23  LYS23       0.1093
      9  NZ        36.5400   31.0700   31.1210 N.3    23  LYS23      -0.1314
     10  N         41.0400   29.3770   29.8080 N.am   24  ASN24      -0.1974
     11  CA        41.1470   30.4780   28.8170 C.3    24  ASN24       0.1688
     12  C         42.2250   30.2060   27.7660 C.2    24  ASN24       0.2292
     13  O         42.3650   31.0320   26.8130 O.2    24  ASN24      -0.2864
     14  CB        41.2870   31.8140   29.5330 C.3    24  ASN24       0.1181
     15  CG        40.0070   32.2020   30.2480 C.2    24  ASN24       0.2629
     16  OD1       38.9230   31.8540   29.7920 O.2    24  ASN24      -0.2716
     17  ND2       40.1430   32.8830   31.3650 N.am   24  ASN24      -0.0877
     18  N         32.5690   24.7190   29.6360 N.3    51  ASP51      -0.1239
     19  CA        32.9270   25.5100   28.4270 C.3    51  ASP51       0.1674
     20  C         33.6790   24.6310   27.4120 C.2    51  ASP51       0.2266
     21  O         33.5420   24.8490   26.2130 O.2    51  ASP51      -0.2867
     22  CB        33.7380   26.7560   28.8140 C.3    51  ASP51       0.1410
     23  CG        32.9380   27.9250   29.3690 C.2    51  ASP51       0.3668
     24  OD1       31.7610   27.7450   29.6600 O.co2  51  ASP51      -0.2456
     25  OD2       33.5060   29.0220   29.4460 O.co2  51  ASP51      -0.2456
     26  N         32.7840   32.9890   24.1590 N.3    97  ALA97      -0.1245
     27  CA        34.1490   32.6700   23.6630 C.3    97  ALA97       0.1562
     28  C         34.0770   31.8130   22.4030 C.2    97  ALA97       0.2260
     29  O         35.1180   31.6510   21.7340 O.2    97  ALA97      -0.2867
     30  CB        34.9930   32.0070   24.7280 C.3    97  ALA97       0.0290
     31  N         26.3570   40.4480   28.1900 N.3   120  CYS120     -0.1235
     32  CA        27.0690   39.6580   29.2290 C.3   120  CYS120      0.1677
     33  C         26.8880   40.3960   30.5580 C.2   120  CYS120      0.2270
     34  O         26.9300   41.6330   30.5580 O.2   120  CYS120     -0.2867
     35  CB        28.5510   39.4340   28.9560 C.3   120  CYS120      0.0956
     36  SG        29.3260   38.3790   30.2190 S.3   120  CYS120     -0.0801
     37  N         28.8520   40.6980   33.2120 N.3   122  ILE122     -0.1245
     38  CA        29.9900   41.4380   33.8580 C.3   122  ILE122      0.1561
     39  C         30.3950   42.6720   33.0560 C.2   122  ILE122      0.2260
     40  O         31.2490   43.4300   33.5430 O.2   122  ILE122     -0.2867
     41  CB        31.1950   40.5330   34.1580 C.3   122  ILE122      0.0252
     42  CG1       31.8220   39.9210   32.9090 C.3   122  ILE122      0.0019
     43  CG2       30.8190   39.4680   35.1870 C.3   122  ILE122      0.0019
     44  CD1       33.1440   39.2480   33.1920 C.3   122  ILE122      0.0001
     45  N         30.6450   43.8510   26.0760 N.3   125  ARG125     -0.1245
     46  CA        31.7660   43.1480   25.4030 C.3   125  ARG125      0.1563
     47  C         31.5060   43.1530   23.8990 C.2   125  ARG125      0.2260
     48  O         31.1820   42.1170   23.3160 O.2   125  ARG125     -0.2867
     49  CB        31.8720   41.7390   25.9890 C.3   125  ARG125      0.0307
     50  CG        32.0040   41.7270   27.5060 C.3   125  ARG125      0.0489
     51  CD        31.9590   40.3340   28.1010 C.3   125  ARG125      0.2205
     52  NE        33.1630   39.5830   27.8140 N.pl3 125  ARG125     -0.0865
     53  CZ        33.4390   38.3820   28.3160 C.cat 125  ARG125      0.5346
     54  NH1       32.5810   37.7780   29.1280 N.pl3 125  ARG125      0.1354
     55  NH2       34.5760   37.7910   27.9960 N.pl3 125  ARG125      0.1354
     56  N         40.6970   38.6510   35.9300 N.3   309  ASP309     -0.1239
     57  CA        40.1520   37.3340   36.3240 C.3   309  ASP309      0.1674
     58  C         40.5680   36.9380   37.7510 C.2   309  ASP309      0.2266
     59  O         40.0400   35.9200   38.2280 O.2   309  ASP309     -0.2867
     60  CB        40.4670   36.2660   35.2800 C.3   309  ASP309      0.1410
     61  CG        39.8170   36.4920   33.9280 C.2   309  ASP309      0.3668
     62  OD1       38.9610   37.4240   33.7810 O.co2 309  ASP309     -0.2456
     63  OD2       40.1550   35.7210   33.0070 O.co2 309  ASP309     -0.2456
     64  N         36.4780   45.4730   32.9160 N.3   332  PHE332     -0.1241
     65  CA        35.0220   45.1840   32.8090 C.3   332  PHE332      0.1605
     66  C         34.2620   46.2530   33.5870 C.2   332  PHE332      0.2264
     67  O         34.7410   46.6840   34.6370 O.2   332  PHE332     -0.2867
     68  CB        34.6820   43.7750   33.3030 C.3   332  PHE332      0.0534
     69  CG        35.1210   42.6860   32.3680 C.ar  332  PHE332     -0.0203
     70  CD1       34.3730   42.3830   31.2420 C.ar  332  PHE332     -0.0042
     71  CD2       36.2540   41.9400   32.6250 C.ar  332  PHE332     -0.0042
     72  CE1       34.7870   41.3910   30.3720 C.ar  332  PHE332     -0.0003
     73  CE2       36.6600   40.9390   31.7590 C.ar  332  PHE332     -0.0003
     74  CZ        35.9190   40.6570   30.6340 C.ar  332  PHE332     -0.0000
     75  N         31.7730   44.2950   37.2120 N.3   335  ARG335     -0.1245
     76  CA        32.3890   43.1000   37.8230 C.3   335  ARG335      0.1563
     77  C         32.5730   43.2530   39.3380 C.2   335  ARG335      0.2260
     78  O         33.5190   42.6860   39.8790 O.2   335  ARG335     -0.2867
     79  CB        33.6810   42.7570   37.0720 C.3   335  ARG335      0.0307
     80  CG        34.0180   41.2760   37.1640 C.3   335  ARG335      0.0489
     81  CD        35.2920   40.8620   36.4530 C.3   335  ARG335      0.2205
     82  NE        35.3520   39.4070   36.4290 N.pl3 335  ARG335     -0.0865
     83  CZ        36.2070   38.6860   35.7070 C.cat 335  ARG335      0.5346
     84  NH1       36.0870   37.3750   35.6740 N.pl3 335  ARG335      0.1354
     85  NH2       37.1350   39.2640   34.9730 N.pl3 335  ARG335      0.1354
     86  N         28.4160   35.0590   38.5290 N.3   373  ASP373     -0.1225
     87  CA        29.4010   34.8210   37.4490 C.3   373  ASP373      0.1805
     88  C         30.4900   33.9000   38.0060 C.2   373  ASP373      0.2598
     89  O         30.5380   33.6810   39.2310 O.2   373  ASP373     -0.2718
     90  CB        29.9290   36.1600   36.9160 C.3   373  ASP373      0.1424
     91  CG        30.6300   36.9950   37.9640 C.2   373  ASP373      0.3668
     92  OD1       31.8100   36.6840   38.2600 O.co2 373  ASP373     -0.2456
     93  OD2       29.9740   37.9050   38.5530 O.co2 373  ASP373     -0.2456
     94  N         31.3530   33.4170   37.1270 N.am  374  LEU374     -0.1966
     95  CA        32.3740   32.4120   37.4850 C.3   374  LEU374      0.1728
     96  C         33.2700   32.8580   38.6510 C.2   374  LEU374      0.2616
     97  O         33.3530   32.1370   39.6510 O.2   374  LEU374     -0.2715
     98  CB        33.1920   32.1580   36.2140 C.3   374  LEU374      0.0311
     99  CG        34.4970   31.3930   36.3790 C.3   374  LEU374      0.0022
    100  CD1       34.3020   30.0520   37.0770 C.3   374  LEU374      0.0001
    101  CD2       35.1420   31.1850   35.0160 C.3   374  LEU374      0.0001
    102  N         33.9670   33.9810   38.5130 N.am  375  ARG375     -0.1977
    103  CA        34.9420   34.3650   39.5670 C.3   375  ARG375      0.1597
    104  C         34.2110   34.8410   40.8280 C.2   375  ARG375      0.2287
    105  O         34.7630   34.6510   41.9280 O.2   375  ARG375     -0.2864
    106  CB        35.9800   35.3470   39.0240 C.3   375  ARG375      0.0334
    107  CG        36.6670   34.8770   37.7530 C.3   375  ARG375      0.0492
    108  CD        37.4180   33.5650   37.8680 C.3   375  ARG375      0.2205
    109  NE        37.8910   33.1560   36.5550 N.pl3 375  ARG375     -0.0865
    110  CZ        38.4430   31.9820   36.2860 C.cat 375  ARG375      0.5346
    111  NH1       38.6190   31.0920   37.2380 N.pl3 375  ARG375      0.1354
    112  NH2       38.8120   31.6940   35.0460 N.pl3 375  ARG375      0.1354
    113  N         31.9150   26.3920   35.0780 N.3   401  ARG401     -0.1245
    114  CA        32.4920   26.7800   33.7630 C.3   401  ARG401      0.1563
    115  C         34.0170   26.9090   33.8760 C.2   401  ARG401      0.2260
    116  O         34.6950   26.7770   32.8240 O.2   401  ARG401     -0.2867
    117  CB        31.8900   28.1080   33.2860 C.3   401  ARG401      0.0307
    118  CG        30.3940   28.0550   33.0190 C.3   401  ARG401      0.0489
    119  CD        29.8650   29.3680   32.4820 C.3   401  ARG401      0.2205
    120  NE        30.5310   29.7260   31.2420 N.pl3 401  ARG401     -0.0865
    121  CZ        30.2850   30.8260   30.5420 C.cat 401  ARG401      0.5346
    122  NH1       29.3680   31.6830   30.9520 N.pl3 401  ARG401      0.1354
    123  NH2       30.9530   31.0650   29.4280 N.pl3 401  ARG401      0.1354
@<TRIPOS>BOND
     1    29    28    2
     2    28    27    1
     3    48    47    2
     4    27    26    1
     5    27    30    1
     6    47    46    1
     7    46    49    1
     8    46    45    1
     9    49    50    1
    10    21    20    2
    11    13    12    2
    12    20    19    1
    13    50    51    1
    14    12    11    1
    15    52    51    1
    16    52    53    2
    17    55    53    1
    18    31    32    1
    19    53    54    1
    20     4     3    2
    21    19    22    1
    22    19    18    1
    23    22    23    1
    24    11    14    1
    25    11    10    1
    26    35    32    1
    27    35    36    1
    28    32    33    1
    29    23    25   ar
    30    23    24   ar
    31   123   121    1
    32     3    10   am
    33     3     2    1
    34    14    15    1
    35    16    15    2
    36    15    17   am
    37    72    74   ar
    38    72    70   ar
    39   121   122    1
    40   121   120    2
    41    34    33    2
    42     2     1    1
    43     2     5    1
    44    74    73   ar
    45     6     5    1
    46     6     7    1
    47     9     8    1
    48    70    69   ar
    49   120   119    1
    50    73    71   ar
    51     7     8    1
    52    69    71   ar
    53    69    68    1
    54   119   118    1
    55    65    64    1
    56    65    68    1
    57    65    66    1
    58   116   115    2
    59    42    44    1
    60    42    41    1
    61    63    61   ar
    62   118   117    1
    63    39    40    2
    64    39    38    1
    65    37    38    1
    66   117   114    1
    67    66    67    2
    68   114   115    1
    69   114   113    1
    70    62    61   ar
    71    38    41    1
    72    61    60    1
    73    41    43    1
    74    85    83    1
    75   101    99    1
    76   112   110    1
    77    60    57    1
    78    84    83    1
    79    83    82    2
    80    56    57    1
    81    98    99    1
    82    98    95    1
    83   110   109    2
    84   110   111    1
    85    57    58    1
    86    99   100    1
    87    82    81    1
    88    81    80    1
    89   109   108    1
    90    90    87    1
    91    90    91    1
    92    79    80    1
    93    79    76    1
    94    94    95    1
    95    94    88   am
    96    75    76    1
    97    87    88    1
    98    87    86    1
    99    95    96    1
   100    58    59    2
   101   107   108    1
   102   107   106    1
   103    76    77    1
   104    91    92   ar
   105    91    93   ar
   106    88    89    2
   107   102    96   am
   108   102   103    1
   109    96    97    2
   110   106   103    1
   111    77    78    2
   112   103   104    1
   113   104   105    2
