@<TRIPOS>MOLECULE
tmp/6nm4A01.pdb
 153 154 0 0 0
SMALL
GASTEIGER

@<TRIPOS>ATOM
      1  N          3.9460  -17.6890   22.1570 N.3    82  TYR82      -0.1241
      2  CA         4.6710  -18.8260   22.6960 C.3    82  TYR82       0.1605
      3  C          6.1160  -18.6340   22.2940 C.2    82  TYR82       0.2264
      4  O          6.4170  -18.5170   21.1130 O.2    82  TYR82      -0.2867
      5  CB         4.1020  -20.1430   22.1440 C.3    82  TYR82       0.0534
      6  CG         4.5690  -21.4280   22.8210 C.ar   82  TYR82      -0.0201
      7  CD1        5.6880  -22.0890   22.3880 C.ar   82  TYR82      -0.0009
      8  CD2        3.8490  -21.9990   23.8670 C.ar   82  TYR82      -0.0009
      9  CE1        6.1090  -23.2670   22.9790 C.ar   82  TYR82       0.0417
     10  CE2        4.2450  -23.1880   24.4580 C.ar   82  TYR82       0.0417
     11  CZ         5.3860  -23.8170   23.9970 C.ar   82  TYR82       0.1957
     12  OH         5.8290  -25.0010   24.5540 O.3    82  TYR82      -0.2866
     13  N          6.7660  -33.3500   18.9710 N.3    94  ASN94      -0.1240
     14  CA         6.4590  -34.3800   19.9780 C.3    94  ASN94       0.1653
     15  C          7.6280  -34.6300   20.9360 C.2    94  ASN94       0.2266
     16  O          7.9240  -35.7580   21.2910 O.2    94  ASN94      -0.2867
     17  CB         6.0350  -35.7160   19.3210 C.3    94  ASN94       0.1155
     18  CG         4.7030  -35.6210   18.5880 C.2    94  ASN94       0.2627
     19  OD1        4.4180  -34.6240   17.9200 O.2    94  ASN94      -0.2716
     20  ND2        3.8790  -36.6670   18.7120 N.am   94  ASN94      -0.0877
     21  N          6.9970  -32.7500   23.5160 N.3    96  GLY96      -0.1210
     22  CA         6.1000  -32.2400   24.5390 C.3    96  GLY96       0.1956
     23  C          5.9060  -30.7280   24.5180 C.2    96  GLY96       0.2612
     24  O          4.9290  -30.2450   25.0670 O.2    96  GLY96      -0.2717
     25  N          6.8180  -29.9710   23.9010 N.am   97  TYR97      -0.1962
     26  CA         6.8480  -28.5040   24.0600 C.3    97  TYR97       0.1771
     27  C          6.9340  -27.7170   22.7320 C.2    97  TYR97       0.2620
     28  O          7.2330  -26.5100   22.7330 O.2    97  TYR97      -0.2715
     29  CB         8.0100  -28.1210   24.9920 C.3    97  TYR97       0.0574
     30  CG         7.9130  -28.7530   26.3670 C.ar   97  TYR97      -0.0198
     31  CD1        8.4270  -30.0250   26.6010 C.ar   97  TYR97      -0.0009
     32  CD2        7.3120  -28.0860   27.4240 C.ar   97  TYR97      -0.0009
     33  CE1        8.3510  -30.6160   27.8490 C.ar   97  TYR97       0.0417
     34  CE2        7.2190  -28.6640   28.6760 C.ar   97  TYR97       0.0417
     35  CZ         7.7360  -29.9370   28.8830 C.ar   97  TYR97       0.1957
     36  OH         7.6560  -30.5370   30.1180 O.3    97  TYR97      -0.2866
     37  N          6.6650  -28.3890   21.6180 N.am   98  SER98      -0.1936
     38  CA         6.8170  -27.7700   20.3050 C.3    98  SER98       0.2055
     39  C          5.4710  -27.5480   19.6500 C.2    98  SER98       0.2643
     40  O          4.5960  -28.4030   19.7330 O.2    98  SER98      -0.2714
     41  CB         7.6640  -28.6530   19.3950 C.3    98  SER98       0.2130
     42  OG         8.9130  -28.9250   19.9990 O.3    98  SER98      -0.2179
     43  N          5.3090  -26.3900   19.0220 N.am   99  TRP99      -0.1973
     44  CA         4.1450  -26.0950   18.2350 C.3    99  TRP99       0.1640
     45  C          4.5730  -25.8990   16.7890 C.2    99  TRP99       0.2290
     46  O          5.6740  -25.4440   16.4940 O.2    99  TRP99      -0.2864
     47  CB         3.5120  -24.8010   18.6850 C.3    99  TRP99       0.0576
     48  CG         2.7200  -24.8310   19.9330 C.ar   99  TRP99       0.0006
     49  CD1        3.0160  -24.1780   21.0770 C.ar   99  TRP99       0.0946
     50  CD2        1.4490  -25.4440   20.1420 C.ar   99  TRP99       0.0152
     51  NE1        2.0380  -24.3700   22.0120 N.ar   99  TRP99      -0.2442
     52  CE2        1.0590  -25.1510   21.4650 C.ar   99  TRP99       0.0810
     53  CE3        0.6110  -26.2320   19.3550 C.ar   99  TRP99       0.0012
     54  CZ2       -0.1370  -25.6200   22.0220 C.ar   99  TRP99       0.0191
     55  CZ3       -0.5840  -26.6940   19.9090 C.ar   99  TRP99       0.0001
     56  CH2       -0.9470  -26.3810   21.2240 C.ar   99  TRP99       0.0015
     57  N         -2.8930  -29.5160   28.2220 N.3   127  CYS127     -0.1221
     58  CA        -3.9440  -29.6540   27.2110 C.3   127  CYS127      0.1808
     59  C         -5.2500  -30.1380   27.7850 C.2   127  CYS127      0.2601
     60  O         -5.2700  -31.0620   28.5800 O.2   127  CYS127     -0.2717
     61  CB        -3.5160  -30.6190   26.1190 C.3   127  CYS127      0.0970
     62  SG        -2.1200  -30.0010   25.1710 S.3   127  CYS127     -0.0800
     63  N         -6.3400  -29.5190   27.3600 N.am  128  ALA128     -0.1965
     64  CA        -7.6750  -30.0380   27.6310 C.3   128  ALA128      0.1728
     65  C         -7.8250  -31.4620   27.1120 C.2   128  ALA128      0.2616
     66  O         -7.2240  -31.8340   26.0890 O.2   128  ALA128     -0.2715
     67  CB        -8.7280  -29.1590   26.9870 C.3   128  ALA128      0.0334
     68  N         -8.6090  -32.2570   27.8440 N.am  129  ARG129     -0.1963
     69  CA        -8.9430  -33.6240   27.4220 C.3   129  ARG129      0.1729
     70  C        -10.2260  -33.6670   26.5950 C.2   129  ARG129      0.2616
     71  O        -10.4360  -34.6000   25.8380 O.2   129  ARG129     -0.2715
     72  CB        -9.0770  -34.5350   28.6290 C.3   129  ARG129      0.0348
     73  CG        -7.7700  -34.7290   29.3550 C.3   129  ARG129      0.0492
     74  CD        -7.9740  -35.3830   30.7060 C.3   129  ARG129      0.2205
     75  NE        -8.7360  -34.5320   31.6190 N.pl3 129  ARG129     -0.0865
     76  CZ        -8.9230  -34.8000   32.9150 C.cat 129  ARG129      0.5346
     77  NH1       -8.3970  -35.8950   33.4850 N.pl3 129  ARG129      0.1354
     78  NH2       -9.6390  -33.9640   33.6560 N.pl3 129  ARG129      0.1354
     79  N        -11.0650  -32.6460   26.7400 N.am  130  ASP130     -0.1957
     80  CA       -12.3320  -32.5880   26.0380 C.3   130  ASP130      0.1840
     81  C        -12.7660  -31.1400   25.8940 C.2   130  ASP130      0.2622
     82  O        -12.2530  -30.2540   26.5780 O.2   130  ASP130     -0.2715
     83  CB       -13.4080  -33.4290   26.7630 C.3   130  ASP130      0.1450
     84  CG       -13.6290  -33.0130   28.2250 C.2   130  ASP130      0.3671
     85  OD1      -13.9580  -31.8320   28.4870 O.co2 130  ASP130     -0.2456
     86  OD2      -13.4960  -33.8750   29.1280 O.co2 130  ASP130     -0.2456
     87  N        -13.7340  -30.9150   25.0180 N.am  131  ASP131     -0.1971
     88  CA       -14.2220  -29.5710   24.7380 C.3   131  ASP131      0.1709
     89  C        -14.7900  -28.8830   25.9890 C.2   131  ASP131      0.2293
     90  O        -14.7000  -27.6720   26.1260 O.2   131  ASP131     -0.2864
     91  CB       -15.2830  -29.6200   23.6170 C.3   131  ASP131      0.1436
     92  CG       -14.7400  -30.2000   22.2930 C.2   131  ASP131      0.3671
     93  OD1      -13.5090  -30.1370   22.0380 O.co2 131  ASP131     -0.2456
     94  OD2      -15.5670  -30.7160   21.5010 O.co2 131  ASP131     -0.2456
     95  N        -11.9580  -27.4350   28.1720 N.3   134  GLN134     -0.1245
     96  CA       -11.1010  -26.5370   27.3890 C.3   134  GLN134      0.1566
     97  C        -11.5350  -25.0990   27.5620 C.2   134  GLN134      0.2260
     98  O        -12.6890  -24.7660   27.3020 O.2   134  GLN134     -0.2867
     99  CB       -11.1510  -26.8820   25.8990 C.3   134  GLN134      0.0367
    100  CG       -10.4290  -25.8910   25.0220 C.3   134  GLN134      0.0905
    101  CD       -10.3510  -26.2910   23.5510 C.2   134  GLN134      0.2608
    102  OE1      -11.0470  -27.1970   23.0930 O.2   134  GLN134     -0.2717
    103  NE2       -9.4940  -25.6020   22.8030 N.am  134  GLN134     -0.0878
    104  N         -2.5830  -18.2030   22.6990 N.3   147  TYR147     -0.1241
    105  CA        -3.6880  -18.9270   23.3070 C.3   147  TYR147      0.1605
    106  C         -4.7820  -17.9140   23.6210 C.2   147  TYR147      0.2264
    107  O         -4.5040  -16.9300   24.3200 O.2   147  TYR147     -0.2867
    108  CB        -3.2510  -19.5820   24.6220 C.3   147  TYR147      0.0534
    109  CG        -2.1770  -20.6560   24.5530 C.ar  147  TYR147     -0.0201
    110  CD1       -1.8030  -21.2630   23.3580 C.ar  147  TYR147     -0.0009
    111  CD2       -1.5570  -21.0770   25.7020 C.ar  147  TYR147     -0.0009
    112  CE1       -0.8270  -22.2460   23.3380 C.ar  147  TYR147      0.0417
    113  CE2       -0.5950  -22.0590   25.6860 C.ar  147  TYR147      0.0417
    114  CZ        -0.2220  -22.6370   24.5110 C.ar  147  TYR147      0.1957
    115  OH         0.7420  -23.6270   24.5540 O.3   147  TYR147     -0.2866
    116  N         -6.3850  -26.4340   23.7060 N.3   162  TRP162     -0.1227
    117  CA        -6.2990  -27.3110   22.5520 C.3   162  TRP162      0.1737
    118  C         -6.4900  -26.4010   21.3350 C.2   162  TRP162      0.2595
    119  O         -6.5440  -25.1780   21.4720 O.2   162  TRP162     -0.2718
    120  CB        -7.3500  -28.4310   22.6470 C.3   162  TRP162      0.0564
    121  CG        -7.0860  -29.5960   21.7230 C.ar  162  TRP162      0.0003
    122  CD1       -7.8920  -30.0390   20.7010 C.ar  162  TRP162      0.0946
    123  CD2       -5.9310  -30.4460   21.7190 C.ar  162  TRP162      0.0152
    124  NE1       -7.2970  -31.1000   20.0580 N.ar  162  TRP162     -0.2442
    125  CE2       -6.1020  -31.3810   20.6620 C.ar  162  TRP162      0.0810
    126  CE3       -4.7740  -30.5240   22.5050 C.ar  162  TRP162      0.0012
    127  CZ2       -5.1580  -32.3780   20.3690 C.ar  162  TRP162      0.0191
    128  CZ3       -3.8330  -31.5340   22.2230 C.ar  162  TRP162      0.0001
    129  CH2       -4.0340  -32.4400   21.1530 C.ar  162  TRP162      0.0015
    130  N         -6.5590  -26.9940   20.1570 N.am  163  TYR163     -0.1976
    131  CA        -6.5470  -26.2660   18.8980 C.3   163  TYR163      0.1639
    132  C         -7.5630  -26.8050   17.9090 C.2   163  TYR163      0.2290
    133  O         -8.2280  -27.8040   18.1710 O.2   163  TYR163     -0.2864
    134  CB        -5.1560  -26.3690   18.2750 C.3   163  TYR163      0.0560
    135  CG        -4.6940  -27.7790   18.0100 C.ar  163  TYR163     -0.0198
    136  CD1       -5.0900  -28.4680   16.8800 C.ar  163  TYR163     -0.0009
    137  CD2       -3.8570  -28.4280   18.9090 C.ar  163  TYR163     -0.0009
    138  CE1       -4.6430  -29.7650   16.6350 C.ar  163  TYR163      0.0417
    139  CE2       -3.4150  -29.7190   18.6750 C.ar  163  TYR163      0.0417
    140  CZ        -3.7990  -30.3680   17.5180 C.ar  163  TYR163      0.1957
    141  OH        -3.3580  -31.6520   17.3240 O.3   163  TYR163     -0.2866
    142  N         -4.7690  -23.7390   13.3310 N.3   167  TYR167     -0.1241
    143  CA        -3.4580  -24.1620   13.7580 C.3   167  TYR167      0.1605
    144  C         -2.9160  -25.2940   12.8980 C.2   167  TYR167      0.2264
    145  O         -3.6740  -26.1720   12.4570 O.2   167  TYR167     -0.2867
    146  CB        -3.5000  -24.6380   15.2060 C.3   167  TYR167      0.0534
    147  CG        -2.2770  -25.4580   15.5260 C.ar  167  TYR167     -0.0201
    148  CD1       -1.0610  -24.8320   15.7670 C.ar  167  TYR167     -0.0009
    149  CD2       -2.3160  -26.8590   15.5150 C.ar  167  TYR167     -0.0009
    150  CE1        0.0790  -25.5620   16.0100 C.ar  167  TYR167      0.0417
    151  CE2       -1.1810  -27.6040   15.7810 C.ar  167  TYR167      0.0417
    152  CZ         0.0200  -26.9510   16.0270 C.ar  167  TYR167      0.1957
    153  OH         1.1760  -27.6610   16.2810 O.3   167  TYR167     -0.2866
@<TRIPOS>BOND
     1   145   144    2
     2   144   143    1
     3   142   143    1
     4   143   146    1
     5   146   147    1
     6   149   147   ar
     7   149   151   ar
     8   147   148   ar
     9   148   150   ar
    10   151   152   ar
    11   150   152   ar
    12   152   153    1
    13    46    45    2
    14   138   136   ar
    15   138   140   ar
    16    45    44    1
    17   136   135   ar
    18   141   140    1
    19   140   139   ar
    20   132   133    2
    21   132   131    1
    22    19    18    2
    23   135   134    1
    24   135   137   ar
    25    44    47    1
    26    44    43    1
    27   134   131    1
    28    18    20   am
    29    18    17    1
    30   139   137   ar
    31    47    48    1
    32   131   130    1
    33    13    14    1
    34    43    39   am
    35    17    14    1
    36    53    55   ar
    37    53    50   ar
    38    41    42    1
    39    41    38    1
    40    39    40    2
    41    39    38    1
    42    55    56   ar
    43    48    50   ar
    44    48    49   ar
    45    14    15    1
    46   124   125   ar
    47   124   122   ar
    48    50    52   ar
    49   130   118   am
    50    38    37    1
    51   127   125   ar
    52   127   129   ar
    53   125   123   ar
    54   122   121   ar
    55    15    16    2
    56    49    51   ar
    57     4     3    2
    58   129   128   ar
    59    56    54   ar
    60   118   119    2
    61   118   117    1
    62    52    51   ar
    63    52    54   ar
    64    94    92   ar
    65    37    27   am
    66   123   121   ar
    67   123   126   ar
    68   121   120    1
    69    93    92   ar
    70     5     2    1
    71     5     6    1
    72     1     2    1
    73   128   126   ar
    74    92    91    1
    75     3     2    1
    76     7     6   ar
    77     7     9   ar
    78   117   120    1
    79   117   116    1
    80   104   105    1
    81    27    28    2
    82    27    26    1
    83   103   101   am
    84     6     8   ar
    85     9    11   ar
    86   102   101    2
    87   105   106    1
    88   105   108    1
    89   112   110   ar
    90   112   114   ar
    91   110   109   ar
    92    21    22    1
    93   101   100    1
    94    91    88    1
    95   106   107    2
    96     8    10   ar
    97    25    26    1
    98    25    23   am
    99    11    10   ar
   100    11    12    1
   101    26    29    1
   102   114   115    1
   103   114   113   ar
   104    23    22    1
   105    23    24    2
   106   109   108    1
   107   109   111   ar
   108    88    87    1
   109    88    89    1
   110    29    30    1
   111    87    81   am
   112   100    99    1
   113    62    61    1
   114   113   111   ar
   115    71    70    2
   116    81    80    1
   117    81    82    2
   118    99    96    1
   119    89    90    2
   120    80    79    1
   121    80    83    1
   122    66    65    2
   123    61    58    1
   124    30    31   ar
   125    30    32   ar
   126    70    79   am
   127    70    69    1
   128    31    33   ar
   129    83    84    1
   130    67    64    1
   131    65    64    1
   132    65    68   am
   133    58    59    1
   134    58    57    1
   135    98    97    2
   136    63    64    1
   137    63    59   am
   138    96    97    1
   139    96    95    1
   140    69    68    1
   141    69    72    1
   142    32    34   ar
   143    59    60    2
   144    33    35   ar
   145    84    85   ar
   146    84    86   ar
   147    72    73    1
   148    34    35   ar
   149    35    36    1
   150    73    74    1
   151    74    75    1
   152    75    76    2
   153    76    77    1
   154    76    78    1
