@<TRIPOS>MOLECULE
tmp/6nm4A00.pdb
 166 165 0 0 0
SMALL
GASTEIGER

@<TRIPOS>ATOM
      1  N         -5.1180  -32.2160   36.2140 N.3    59  ILE59      -0.1231
      2  CA        -5.1080  -33.4410   35.4120 C.3    59  ILE59       0.1678
      3  C         -4.0810  -34.4180   35.9760 C.2    59  ILE59       0.2434
      4  O         -2.8940  -34.1320   35.9600 O.2    59  ILE59      -0.2733
      5  CB        -4.7630  -33.1270   33.9460 C.3    59  ILE59       0.0265
      6  CG1       -5.8390  -32.2070   33.3500 C.3    59  ILE59       0.0019
      7  CG2       -4.6090  -34.4070   33.1290 C.3    59  ILE59       0.0020
      8  CD1       -5.4380  -31.5560   32.0550 C.3    59  ILE59       0.0001
      9  N         -4.5240  -35.5790   36.4720 N.am   60  PRO60      -0.2718
     10  CA        -3.5780  -36.5090   37.1110 C.3    60  PRO60       0.1535
     11  C         -2.4090  -36.9280   36.2160 C.2    60  PRO60       0.2598
     12  O         -2.5690  -37.0240   35.0080 O.2    60  PRO60      -0.2715
     13  CB        -4.4550  -37.7190   37.4470 C.3    60  PRO60       0.0310
     14  CG        -5.8150  -37.1390   37.6050 C.3    60  PRO60       0.0237
     15  CD        -5.9090  -36.0670   36.5560 C.3    60  PRO60       0.0939
     16  N         -1.2580  -37.1870   36.8300 N.am   61  GLN61      -0.1964
     17  CA        -0.0250  -37.5710   36.1190 C.3    61  GLN61       0.1733
     18  C          0.3520  -36.6370   34.9630 C.2    61  GLN61       0.2616
     19  O          0.9260  -37.0960   33.9750 O.2    61  GLN61      -0.2715
     20  CB        -0.1150  -39.0000   35.5530 C.3    61  GLN61       0.0408
     21  CG         0.0520  -40.1290   36.5620 C.3    61  GLN61       0.0908
     22  CD        -1.2730  -40.6170   37.0980 C.2    61  GLN61       0.2608
     23  OE1       -1.4370  -40.7350   38.2970 O.2    61  GLN61      -0.2717
     24  NE2       -2.2300  -40.9010   36.2090 N.am   61  GLN61      -0.0878
     25  N          0.0440  -35.3500   35.0710 N.am   62  ALA62      -0.1963
     26  CA         0.3280  -34.4360   33.9620 C.3    62  ALA62       0.1728
     27  C          1.2610  -33.2950   34.3440 C.2    62  ALA62       0.2617
     28  O          1.1820  -32.2060   33.7910 O.2    62  ALA62      -0.2715
     29  CB        -0.9750  -33.8880   33.3740 C.3    62  ALA62       0.0334
     30  N          2.1480  -33.5590   35.2890 N.am   63  GLY63      -0.1940
     31  CA         3.0880  -32.5550   35.7770 C.3    63  GLY63       0.2014
     32  C          2.4250  -31.2620   36.2220 C.2    63  GLY63       0.2638
     33  O          1.3900  -31.2550   36.9070 O.2    63  GLY63      -0.2714
     34  N          3.0420  -30.1580   35.8120 N.am   64  LEU64      -0.1977
     35  CA         2.5990  -28.8220   36.1950 C.3    64  LEU64       0.1596
     36  C          1.5840  -28.2610   35.2190 C.2    64  LEU64       0.2287
     37  O          1.4770  -28.7070   34.0630 O.2    64  LEU64      -0.2864
     38  CB         3.7880  -27.8690   36.2770 C.3    64  LEU64       0.0297
     39  CG         4.8400  -28.2450   37.3460 C.3    64  LEU64       0.0022
     40  CD1        6.2070  -27.6540   37.0640 C.3    64  LEU64       0.0001
     41  CD2        4.3190  -27.8610   38.7250 C.3    64  LEU64       0.0001
     42  N          3.9460  -17.6890   22.1570 N.3    82  TYR82      -0.1241
     43  CA         4.6710  -18.8260   22.6960 C.3    82  TYR82       0.1605
     44  C          6.1160  -18.6340   22.2940 C.2    82  TYR82       0.2264
     45  O          6.4170  -18.5170   21.1130 O.2    82  TYR82      -0.2867
     46  CB         4.1020  -20.1430   22.1440 C.3    82  TYR82       0.0534
     47  CG         4.5690  -21.4280   22.8210 C.ar   82  TYR82      -0.0201
     48  CD1        5.6880  -22.0890   22.3880 C.ar   82  TYR82      -0.0009
     49  CD2        3.8490  -21.9990   23.8670 C.ar   82  TYR82      -0.0009
     50  CE1        6.1090  -23.2670   22.9790 C.ar   82  TYR82       0.0417
     51  CE2        4.2450  -23.1880   24.4580 C.ar   82  TYR82       0.0417
     52  CZ         5.3860  -23.8170   23.9970 C.ar   82  TYR82       0.1957
     53  OH         5.8290  -25.0010   24.5540 O.3    82  TYR82      -0.2866
     54  N          8.2980  -33.5670   21.3540 N.3    95  ASN95      -0.1225
     55  CA         9.0950  -33.6020   22.5910 C.3    95  ASN95       0.1785
     56  C          8.2570  -33.0930   23.7680 C.2    95  ASN95       0.2598
     57  O          8.7480  -32.9990   24.8710 O.2    95  ASN95      -0.2718
     58  CB        10.4030  -32.7950   22.4570 C.3    95  ASN95       0.1169
     59  CG        10.1840  -31.2710   22.4070 C.2    95  ASN95       0.2627
     60  OD1        9.0510  -30.7840   22.3810 O.2    95  ASN95      -0.2716
     61  ND2       11.2780  -30.5200   22.3840 N.am   95  ASN95      -0.0877
     62  N          6.9970  -32.7500   23.5160 N.am   96  GLY96      -0.1942
     63  CA         6.1000  -32.2400   24.5390 C.3    96  GLY96       0.2014
     64  C          5.9060  -30.7280   24.5180 C.2    96  GLY96       0.2638
     65  O          4.9290  -30.2450   25.0670 O.2    96  GLY96      -0.2714
     66  N          6.8180  -29.9710   23.9010 N.am   97  TYR97      -0.1973
     67  CA         6.8480  -28.5040   24.0600 C.3    97  TYR97       0.1639
     68  C          6.9340  -27.7170   22.7320 C.2    97  TYR97       0.2290
     69  O          7.2330  -26.5100   22.7330 O.2    97  TYR97      -0.2864
     70  CB         8.0100  -28.1210   24.9920 C.3    97  TYR97       0.0560
     71  CG         7.9130  -28.7530   26.3670 C.ar   97  TYR97      -0.0198
     72  CD1        8.4270  -30.0250   26.6010 C.ar   97  TYR97      -0.0009
     73  CD2        7.3120  -28.0860   27.4240 C.ar   97  TYR97      -0.0009
     74  CE1        8.3510  -30.6160   27.8490 C.ar   97  TYR97       0.0417
     75  CE2        7.2190  -28.6640   28.6760 C.ar   97  TYR97       0.0417
     76  CZ         7.7360  -29.9370   28.8830 C.ar   97  TYR97       0.1957
     77  OH         7.6560  -30.5370   30.1180 O.3    97  TYR97      -0.2866
     78  N         13.9040  -24.1980   29.1530 N.3   116  LYS116     -0.1245
     79  CA        13.2570  -23.2190   30.0290 C.3   116  LYS116      0.1561
     80  C         13.8580  -21.8250   29.8900 C.2   116  LYS116      0.2260
     81  O         13.1780  -20.8210   30.0480 O.2   116  LYS116     -0.2867
     82  CB        13.3270  -23.6850   31.4880 C.3   116  LYS116      0.0271
     83  CG        12.5340  -24.9670   31.7650 C.3   116  LYS116      0.0035
     84  CD        12.7620  -25.4950   33.1730 C.3   116  LYS116      0.0206
     85  CE        12.2170  -26.9150   33.3670 C.3   116  LYS116      0.1093
     86  NZ        10.8830  -26.9740   34.0570 N.3   116  LYS116     -0.1314
     87  N          4.0500  -20.1600   28.9290 N.3   122  MET122     -0.1230
     88  CA         3.0120  -20.9100   28.2310 C.3   122  MET122      0.1702
     89  C          3.4090  -22.3620   28.0210 C.2   122  MET122      0.2592
     90  O          2.5670  -23.1900   27.7250 O.2   122  MET122     -0.2718
     91  CB         2.6660  -20.2350   26.9040 C.3   122  MET122      0.0401
     92  CG         1.8690  -18.9660   27.0740 C.3   122  MET122      0.0596
     93  SD         1.9110  -17.9330   25.6020 S.3   122  MET122     -0.1393
     94  CE         0.8830  -18.8830   24.4770 C.3   122  MET122      0.0692
     95  N          4.6860  -22.6710   28.1860 N.am  123  ARG123     -0.1966
     96  CA         5.1460  -24.0490   28.1580 C.3   123  ARG123      0.1729
     97  C          4.5400  -24.8690   29.3060 C.2   123  ARG123      0.2616
     98  O          4.5160  -26.0810   29.2580 O.2   123  ARG123     -0.2715
     99  CB         6.6840  -24.0950   28.2310 C.3   123  ARG123      0.0348
    100  CG         7.2290  -23.9710   29.6440 C.3   123  ARG123      0.0492
    101  CD         8.7300  -23.8790   29.6920 C.3   123  ARG123      0.2205
    102  NE         9.3970  -25.0920   29.2400 N.pl3 123  ARG123     -0.0865
    103  CZ         9.5150  -26.2190   29.9380 C.cat 123  ARG123      0.5346
    104  NH1        8.9790  -26.3400   31.1290 N.pl3 123  ARG123      0.1354
    105  NH2       10.1740  -27.2420   29.4300 N.pl3 123  ARG123      0.1354
    106  N          4.0790  -24.2090   30.3570 N.am  124  TYR124     -0.1960
    107  CA         3.5360  -24.9170   31.5240 C.3   124  TYR124      0.1771
    108  C          2.0380  -25.1740   31.4110 C.2   124  TYR124      0.2619
    109  O          1.4930  -25.8620   32.2610 O.2   124  TYR124     -0.2715
    110  CB         3.8680  -24.1600   32.8290 C.3   124  TYR124      0.0574
    111  CG         5.3410  -24.1770   33.1630 C.ar  124  TYR124     -0.0198
    112  CD1        5.9960  -25.3750   33.4440 C.ar  124  TYR124     -0.0009
    113  CD2        6.0950  -22.9920   33.2010 C.ar  124  TYR124     -0.0009
    114  CE1        7.3420  -25.4020   33.7470 C.ar  124  TYR124      0.0417
    115  CE2        7.4510  -23.0070   33.5040 C.ar  124  TYR124      0.0417
    116  CZ         8.0660  -24.2130   33.7750 C.ar  124  TYR124      0.1957
    117  OH         9.4060  -24.2380   34.0650 O.3   124  TYR124     -0.2866
    118  N          1.3840  -24.6520   30.3720 N.am  125  VAL125     -0.1963
    119  CA        -0.0600  -24.8640   30.1830 C.3   125  VAL125      0.1727
    120  C         -0.3590  -26.2650   29.6560 C.2   125  VAL125      0.2616
    121  O          0.1500  -26.6750   28.6210 O.2   125  VAL125     -0.2715
    122  CB        -0.6680  -23.8540   29.1810 C.3   125  VAL125      0.0290
    123  CG1       -2.1590  -24.1010   28.9890 C.3   125  VAL125      0.0023
    124  CG2       -0.4440  -22.4280   29.6460 C.3   125  VAL125      0.0023
    125  N         -1.2000  -26.9920   30.3570 N.am  126  ASN126     -0.1958
    126  CA        -1.5880  -28.3480   29.9160 C.3   126  ASN126      0.1819
    127  C         -2.7040  -28.3630   28.8520 C.2   126  ASN126      0.2621
    128  O         -3.3830  -27.3580   28.6180 O.2   126  ASN126     -0.2715
    129  CB        -2.0460  -29.1940   31.1150 C.3   126  ASN126      0.1195
    130  CG        -0.9000  -29.8740   31.8300 C.2   126  ASN126      0.2630
    131  OD1        0.1950  -30.0430   31.2920 O.2   126  ASN126     -0.2716
    132  ND2       -1.1670  -30.3000   33.0490 N.am  126  ASN126     -0.0877
    133  N         -2.8930  -29.5160   28.2220 N.am  127  CYS127     -0.1954
    134  CA        -3.9440  -29.6540   27.2110 C.3   127  CYS127      0.1843
    135  C         -5.2500  -30.1380   27.7850 C.2   127  CYS127      0.2625
    136  O         -5.2700  -31.0620   28.5800 O.2   127  CYS127     -0.2714
    137  CB        -3.5160  -30.6190   26.1190 C.3   127  CYS127      0.0997
    138  SG        -2.1200  -30.0010   25.1710 S.3   127  CYS127     -0.0797
    139  N         -6.3400  -29.5190   27.3600 N.am  128  ALA128     -0.1963
    140  CA        -7.6750  -30.0380   27.6310 C.3   128  ALA128      0.1728
    141  C         -7.8250  -31.4620   27.1120 C.2   128  ALA128      0.2616
    142  O         -7.2240  -31.8340   26.0890 O.2   128  ALA128     -0.2715
    143  CB        -8.7280  -29.1590   26.9870 C.3   128  ALA128      0.0334
    144  N         -8.6090  -32.2570   27.8440 N.am  129  ARG129     -0.1977
    145  CA        -8.9430  -33.6240   27.4220 C.3   129  ARG129      0.1597
    146  C        -10.2260  -33.6670   26.5950 C.2   129  ARG129      0.2287
    147  O        -10.4360  -34.6000   25.8380 O.2   129  ARG129     -0.2864
    148  CB        -9.0770  -34.5350   28.6290 C.3   129  ARG129      0.0334
    149  CG        -7.7700  -34.7290   29.3550 C.3   129  ARG129      0.0492
    150  CD        -7.9740  -35.3830   30.7060 C.3   129  ARG129      0.2205
    151  NE        -8.7360  -34.5320   31.6190 N.pl3 129  ARG129     -0.0865
    152  CZ        -8.9230  -34.8000   32.9150 C.cat 129  ARG129      0.5346
    153  NH1       -8.3970  -35.8950   33.4850 N.pl3 129  ARG129      0.1354
    154  NH2       -9.6390  -33.9640   33.6560 N.pl3 129  ARG129      0.1354
    155  N         -2.5830  -18.2030   22.6990 N.3   147  TYR147     -0.1241
    156  CA        -3.6880  -18.9270   23.3070 C.3   147  TYR147      0.1605
    157  C         -4.7820  -17.9140   23.6210 C.2   147  TYR147      0.2264
    158  O         -4.5040  -16.9300   24.3200 O.2   147  TYR147     -0.2867
    159  CB        -3.2510  -19.5820   24.6220 C.3   147  TYR147      0.0534
    160  CG        -2.1770  -20.6560   24.5530 C.ar  147  TYR147     -0.0201
    161  CD1       -1.8030  -21.2630   23.3580 C.ar  147  TYR147     -0.0009
    162  CD2       -1.5570  -21.0770   25.7020 C.ar  147  TYR147     -0.0009
    163  CE1       -0.8270  -22.2460   23.3380 C.ar  147  TYR147      0.0417
    164  CE2       -0.5950  -22.0590   25.6860 C.ar  147  TYR147      0.0417
    165  CZ        -0.2220  -22.6370   24.5110 C.ar  147  TYR147      0.1957
    166  OH         0.7420  -23.6270   24.5540 O.3   147  TYR147     -0.2866
@<TRIPOS>BOND
     1    45    44    2
     2    54    55    1
     3    46    43    1
     4    46    47    1
     5    42    43    1
     6    44    43    1
     7    60    59    2
     8    61    59   am
     9    48    47   ar
    10    48    50   ar
    11    59    58    1
    12    58    55    1
    13    55    56    1
    14   155   156    1
    15    68    69    2
    16    68    67    1
    17    47    49   ar
    18    50    52   ar
    19   156   157    1
    20   156   159    1
    21   163   161   ar
    22   163   165   ar
    23   161   160   ar
    24    62    56   am
    25    62    63    1
    26   157   158    2
    27    56    57    2
    28    49    51   ar
    29    66    67    1
    30    66    64   am
    31    52    51   ar
    32    52    53    1
    33    67    70    1
    34    94    93    1
    35   165   166    1
    36   165   164   ar
    37    64    63    1
    38    64    65    2
    39   160   159    1
    40   160   162   ar
    41    70    71    1
    42   138   137    1
    43    93    92    1
    44   164   162   ar
    45   147   146    2
    46   142   141    2
    47   137   134    1
    48    71    72   ar
    49    71    73   ar
    50   146   145    1
    51    72    74   ar
    52    91    92    1
    53    91    88    1
    54   143   140    1
    55   141   140    1
    56   141   144   am
    57   134   135    1
    58   134   133    1
    59   139   140    1
    60   139   135   am
    61   145   144    1
    62   145   148    1
    63    73    75   ar
    64    90    89    2
    65   135   136    2
    66    74    76   ar
    67    89    95   am
    68    89    88    1
    69    96    95    1
    70    96    99    1
    71    96    97    1
    72   133   127   am
    73    88    87    1
    74    99   100    1
    75   128   127    2
    76   121   120    2
    77   148   149    1
    78    75    76   ar
    79   127   126    1
    80    76    77    1
    81   123   122    1
    82    78    79    1
    83   122   124    1
    84   122   119    1
    85   102   101    1
    86   102   103    2
    87    98    97    2
    88    97   106   am
    89   149   150    1
    90   105   103    1
    91   100   101    1
    92   120   119    1
    93   120   125   am
    94    80    79    1
    95    80    81    2
    96   126   125    1
    97   126   129    1
    98   103   104    1
    99    79    82    1
   100   119   118    1
   101   106   107    1
   102   118   108   am
   103   150   151    1
   104   129   130    1
   105   131   130    2
   106   108   107    1
   107   108   109    2
   108    82    83    1
   109   107   110    1
   110   151   152    2
   111    83    84    1
   112   130   132   am
   113     8     6    1
   114   110   111    1
   115   152   153    1
   116   152   154    1
   117     7     5    1
   118   111   113   ar
   119   111   112   ar
   120    84    85    1
   121   113   115   ar
   122     6     5    1
   123    85    86    1
   124    29    26    1
   125   112   114   ar
   126   115   116   ar
   127   114   116   ar
   128   116   117    1
   129    28    27    2
   130     5     2    1
   131    26    27    1
   132    26    25    1
   133    19    18    2
   134    37    36    2
   135    27    30   am
   136    18    25   am
   137    18    17    1
   138    12    11    2
   139    36    35    1
   140    30    31    1
   141     2     3    1
   142     2     1    1
   143    20    17    1
   144    20    21    1
   145    31    32    1
   146    34    35    1
   147    34    32   am
   148     4     3    2
   149     3     9   am
   150    17    16    1
   151    35    38    1
   152    24    22   am
   153    11    16   am
   154    11    10    1
   155    32    33    2
   156    38    39    1
   157     9    15    1
   158     9    10    1
   159    15    14    1
   160    21    22    1
   161    40    39    1
   162    22    23    2
   163    10    13    1
   164    39    41    1
   165    13    14    1
