@<TRIPOS>MOLECULE
tmp/6nm6B01.pdb
 110 111 0 0 0
SMALL
GASTEIGER

@<TRIPOS>ATOM
      1  N          8.2910  -33.0930   32.6080 N.3    30  ASN30      -0.1225
      2  CA         6.9200  -33.1790   33.0990 C.3    30  ASN30       0.1785
      3  C          6.7280  -34.2310   34.1840 C.2    30  ASN30       0.2597
      4  O          5.6000  -34.4030   34.6560 O.2    30  ASN30      -0.2718
      5  CB         5.9560  -33.4700   31.9450 C.3    30  ASN30       0.1169
      6  CG         5.7650  -32.2790   31.0270 C.2    30  ASN30       0.2627
      7  OD1        5.9650  -31.1320   31.4270 O.2    30  ASN30      -0.2716
      8  ND2        5.3670  -32.5460   29.7890 N.am   30  ASN30      -0.0877
      9  N          7.7830  -34.9350   34.5940 N.am   31  PHE31      -0.1962
     10  CA         7.6450  -36.0030   35.5740 C.3    31  PHE31       0.1771
     11  C          7.9410  -35.5670   37.0020 C.2    31  PHE31       0.2620
     12  O          7.7110  -36.3510   37.9280 O.2    31  PHE31      -0.2715
     13  CB         8.5560  -37.1850   35.2130 C.3    31  PHE31       0.0574
     14  CG         8.0470  -38.0210   34.0730 C.ar   31  PHE31      -0.0200
     15  CD1        6.8140  -37.7620   33.4990 C.ar   31  PHE31      -0.0042
     16  CD2        8.7980  -39.0770   33.5850 C.ar   31  PHE31      -0.0042
     17  CE1        6.3460  -38.5330   32.4520 C.ar   31  PHE31      -0.0003
     18  CE2        8.3360  -39.8500   32.5380 C.ar   31  PHE31      -0.0003
     19  CZ         7.1080  -39.5790   31.9720 C.ar   31  PHE31      -0.0000
     20  N          8.4360  -34.3490   37.2110 N.am   32  TYR32      -0.1960
     21  CA         8.8180  -33.9080   38.5440 C.3    32  TYR32       0.1771
     22  C          8.4310  -32.4520   38.7440 C.2    32  TYR32       0.2619
     23  O          8.5120  -31.6460   37.8130 O.2    32  TYR32      -0.2715
     24  CB        10.3230  -34.0840   38.7760 C.3    32  TYR32       0.0574
     25  CG        10.8110  -35.4950   38.5450 C.ar   32  TYR32      -0.0198
     26  CD1       10.6980  -36.4600   39.5360 C.ar   32  TYR32      -0.0009
     27  CD2       11.3810  -35.8640   37.3330 C.ar   32  TYR32      -0.0009
     28  CE1       11.1410  -37.7520   39.3290 C.ar   32  TYR32       0.0417
     29  CE2       11.8270  -37.1540   37.1160 C.ar   32  TYR32       0.0417
     30  CZ        11.7040  -38.0930   38.1180 C.ar   32  TYR32       0.1957
     31  OH        12.1460  -39.3790   37.9070 O.3    32  TYR32      -0.2866
     32  N          8.0150  -32.1270   39.9660 N.am   33  HIS33      -0.1973
     33  CA         7.6820  -30.7540   40.3100 C.3    33  HIS33       0.1656
     34  C          8.9210  -29.8660   40.2220 C.2    33  HIS33       0.2291
     35  O         10.0590  -30.3400   40.1760 O.2    33  HIS33      -0.2864
     36  CB         7.0970  -30.6800   41.7210 C.3    33  HIS33       0.0771
     37  CG         5.9420  -31.6050   41.9500 C.ar   33  HIS33       0.0820
     38  ND1        4.6360  -31.1680   41.9900 N.ar   33  HIS33      -0.2267
     39  CD2        5.8970  -32.9420   42.1610 C.ar   33  HIS33       0.1154
     40  CE1        3.8360  -32.1950   42.2140 C.ar   33  HIS33       0.1986
     41  NE2        4.5760  -33.2830   42.3200 N.ar   33  HIS33      -0.2212
     42  N          3.4680  -28.2830   39.3080 N.3    52  SER52      -0.1203
     43  CA         3.5380  -29.5580   38.6070 C.3    52  SER52       0.2005
     44  C          3.4880  -29.3120   37.1050 C.2    52  SER52       0.2461
     45  O          2.4550  -28.8480   36.6000 O.2    52  SER52      -0.2732
     46  CB         2.3940  -30.4660   39.0360 C.3    52  SER52       0.2103
     47  OG         2.4950  -31.7400   38.4230 O.3    52  SER52      -0.2182
     48  N          4.5570  -29.5980   36.3580 N.am   53  PRO53      -0.2717
     49  CA         4.5160  -29.3760   34.9030 C.3    53  PRO53       0.1535
     50  C          3.5130  -30.2570   34.1810 C.2    53  PRO53       0.2599
     51  O          3.0910  -29.9090   33.0710 O.2    53  PRO53      -0.2715
     52  CB         5.9520  -29.6880   34.4580 C.3    53  PRO53       0.0310
     53  CG         6.7790  -29.5750   35.7010 C.3    53  PRO53       0.0237
     54  CD         5.8870  -30.0310   36.8130 C.3    53  PRO53       0.0939
     55  N          3.1230  -31.3870   34.7690 N.am   54  TYR54      -0.1960
     56  CA         2.1510  -32.2870   34.1560 C.3    54  TYR54       0.1771
     57  C          0.7210  -31.8770   34.4970 C.2    54  TYR54       0.2620
     58  O         -0.0780  -31.5770   33.6050 O.2    54  TYR54      -0.2715
     59  CB         2.4270  -33.7280   34.6010 C.3    54  TYR54       0.0574
     60  CG         1.3150  -34.7020   34.2870 C.ar   54  TYR54      -0.0198
     61  CD1        1.1790  -35.2460   33.0170 C.ar   54  TYR54      -0.0009
     62  CD2        0.4060  -35.0870   35.2660 C.ar   54  TYR54      -0.0009
     63  CE1        0.1650  -36.1400   32.7270 C.ar   54  TYR54       0.0417
     64  CE2       -0.6100  -35.9790   34.9860 C.ar   54  TYR54       0.0417
     65  CZ        -0.7260  -36.5030   33.7160 C.ar   54  TYR54       0.1957
     66  OH        -1.7370  -37.3930   33.4350 O.3    54  TYR54      -0.2866
     67  N          0.3880  -31.8600   35.7890 N.am   55  SER55      -0.1950
     68  CA        -0.9500  -31.4790   36.2210 C.3    55  SER55       0.1924
     69  C         -1.2240  -29.9920   36.0550 C.2    55  SER55       0.2314
     70  O         -2.3870  -29.5820   36.1460 O.2    55  SER55      -0.2863
     71  CB        -1.1570  -31.8800   37.6840 C.3    55  SER55       0.2116
     72  OG        -2.4350  -31.4810   38.1500 O.3    55  SER55      -0.2180
     73  N         10.6630  -37.6470   43.6730 N.3   109  LEU109     -0.1231
     74  CA        10.1030  -38.8630   43.0970 C.3   109  LEU109      0.1693
     75  C          8.8650  -38.5340   42.2670 C.2   109  LEU109      0.2592
     76  O          8.4760  -37.3740   42.1130 O.2   109  LEU109     -0.2718
     77  CB         9.7600  -39.8740   44.1960 C.3   109  LEU109      0.0284
     78  CG        10.8960  -40.3160   45.1200 C.3   109  LEU109      0.0019
     79  CD1       10.3650  -41.2080   46.2310 C.3   109  LEU109      0.0001
     80  CD2       11.9820  -41.0270   44.3290 C.3   109  LEU109      0.0001
     81  N          8.2490  -39.5840   41.7240 N.am  110  ARG110     -0.1966
     82  CA         7.0010  -39.4740   40.9820 C.3   110  ARG110      0.1729
     83  C          5.8190  -40.0680   41.7320 C.2   110  ARG110      0.2616
     84  O          4.7100  -40.1000   41.1900 O.2   110  ARG110     -0.2715
     85  CB         7.1330  -40.1530   39.6140 C.3   110  ARG110      0.0348
     86  CG         8.0940  -39.4610   38.6650 C.3   110  ARG110      0.0492
     87  CD         8.2060  -40.2200   37.3530 C.3   110  ARG110      0.2205
     88  NE         6.9110  -40.3790   36.6990 N.pl3 110  ARG110     -0.0865
     89  CZ         6.7140  -41.1120   35.6080 C.cat 110  ARG110      0.5346
     90  NH1        7.7290  -41.7570   35.0520 N.pl3 110  ARG110      0.1354
     91  NH2        5.5030  -41.2050   35.0760 N.pl3 110  ARG110      0.1354
     92  N          6.0300  -40.5420   42.9550 N.am  111  ASP111     -0.1957
     93  CA         4.9770  -41.1020   43.7910 C.3   111  ASP111      0.1840
     94  C          5.4860  -41.1030   45.2300 C.2   111  ASP111      0.2622
     95  O          6.5400  -40.5330   45.5320 O.2   111  ASP111     -0.2715
     96  CB         4.5810  -42.5040   43.3080 C.3   111  ASP111      0.1450
     97  CG         3.1980  -42.9220   43.7810 C.2   111  ASP111      0.3671
     98  OD1        2.4610  -42.0640   44.3090 O.co2 111  ASP111     -0.2456
     99  OD2        2.8500  -44.1120   43.6270 O.co2 111  ASP111     -0.2456
    100  N          4.7320  -41.7350   46.1210 N.am  112  GLY112     -0.1954
    101  CA         5.1360  -41.8580   47.5070 C.3   112  GLY112      0.1869
    102  C          4.7900  -40.6430   48.3470 C.2   112  GLY112      0.2309
    103  O          3.8630  -39.8760   48.0680 O.2   112  GLY112     -0.2863
    104  N          7.2350  -36.6710   47.0490 N.3   115  THR115     -0.1218
    105  CA         7.1350  -36.4920   45.6050 C.3   115  THR115      0.1862
    106  C          7.7730  -35.1830   45.1560 C.2   115  THR115      0.2287
    107  O          8.6130  -35.1690   44.2500 O.2   115  THR115     -0.2866
    108  CB         5.6680  -36.5400   45.1760 C.3   115  THR115      0.1770
    109  OG1        4.8910  -37.1770   46.1980 O.3   115  THR115     -0.2211
    110  CG2        5.5190  -37.3190   43.8820 C.3   115  THR115      0.0375
@<TRIPOS>BOND
     1     8     6   am
     2     6     7    2
     3     6     5    1
     4     5     2    1
     5    19    17   ar
     6    19    18   ar
     7    17    15   ar
     8    18    16   ar
     9     1     2    1
    10    63    61   ar
    11    63    65   ar
    12    61    60   ar
    13    51    50    2
    14     2     3    1
    15    66    65    1
    16    15    14   ar
    17    16    14   ar
    18    58    57    2
    19    65    64   ar
    20    14    13    1
    21    56    57    1
    22    56    59    1
    23    56    55    1
    24    50    55   am
    25    50    49    1
    26     3     9   am
    27     3     4    2
    28    60    59    1
    29    60    62   ar
    30    52    49    1
    31    52    53    1
    32    57    67   am
    33     9    10    1
    34    49    48    1
    35    64    62   ar
    36    90    89    1
    37    91    89    1
    38    13    10    1
    39    10    11    1
    40    89    88    2
    41    53    54    1
    42    67    68    1
    43    69    70    2
    44    69    68    1
    45    68    71    1
    46    48    54    1
    47    48    44   am
    48    45    44    2
    49    88    87    1
    50    11    20   am
    51    11    12    2
    52    44    43    1
    53    29    27   ar
    54    29    30   ar
    55    20    21    1
    56    27    25   ar
    57    87    86    1
    58    71    72    1
    59    23    22    2
    60    31    30    1
    61    30    28   ar
    62    47    46    1
    63    21    22    1
    64    21    24    1
    65    25    24    1
    66    25    26   ar
    67    43    46    1
    68    43    42    1
    69    86    85    1
    70    22    32   am
    71    28    26   ar
    72    85    82    1
    73    32    33    1
    74    35    34    2
    75    34    33    1
    76    33    36    1
    77    82    81    1
    78    82    83    1
    79    84    83    2
    80    36    37    1
    81    81    75   am
    82    83    92   am
    83    37    38   ar
    84    37    39   ar
    85    38    40   ar
    86    76    75    2
    87    39    41   ar
    88    40    41   ar
    89    75    74    1
    90    92    93    1
    91    74    73    1
    92    74    77    1
    93    96    97    1
    94    96    93    1
    95    99    97   ar
    96    97    98   ar
    97    93    94    1
    98   110   108    1
    99    77    78    1
   100   107   106    2
   101    80    78    1
   102    78    79    1
   103   106   105    1
   104   108   105    1
   105   108   109    1
   106    94    95    2
   107    94   100   am
   108   105   104    1
   109   100   101    1
   110   101   102    1
   111   103   102    2
