@<TRIPOS>MOLECULE
tmp/6nmbA00.pdb
 120 120 0 0 0
SMALL
GASTEIGER

@<TRIPOS>ATOM
      1  N         64.5290   -4.1470  116.6540 N.3    51  HIS51      -0.1241
      2  CA        63.7970   -2.9960  116.0880 C.3    51  HIS51       0.1621
      3  C         62.5750   -2.5730  116.9080 C.2    51  HIS51       0.2264
      4  O         62.0990   -1.4490  116.7590 O.2    51  HIS51      -0.2867
      5  CB        63.4260   -3.2270  114.6110 C.3    51  HIS51       0.0745
      6  CG        62.1250   -3.9230  114.3600 C.ar   51  HIS51       0.0817
      7  ND1       62.0800   -5.2600  114.0060 N.ar   51  HIS51      -0.2268
      8  CD2       60.8690   -3.4150  114.3010 C.ar   51  HIS51       0.1154
      9  CE1       60.8020   -5.5380  113.8020 C.ar   51  HIS51       0.1986
     10  NE2       60.0350   -4.4570  113.9630 N.ar   51  HIS51      -0.2212
     11  N         50.0420  -13.0700  105.2600 N.3   197  ASP197     -0.1225
     12  CA        51.3640  -12.5730  105.6770 C.3   197  ASP197      0.1805
     13  C         51.3100  -11.9290  107.0670 C.2   197  ASP197      0.2598
     14  O         50.2270  -11.6620  107.5970 O.2   197  ASP197     -0.2718
     15  CB        51.8080  -11.4590  104.6760 C.3   197  ASP197      0.1424
     16  CG        53.2800  -11.0670  104.6330 C.2   197  ASP197      0.3668
     17  OD1       54.0940  -11.7140  105.3360 O.co2 197  ASP197     -0.2456
     18  OD2       53.6100  -10.0880  103.9190 O.co2 197  ASP197     -0.2456
     19  N         52.4880  -11.6230  107.6390 N.am  198  SER198     -0.1938
     20  CA        52.5610  -10.8790  108.8990 C.3   198  SER198      0.2055
     21  C         52.5120   -9.4110  108.4860 C.2   198  SER198      0.2643
     22  O         52.8350   -9.0730  107.3370 O.2   198  SER198     -0.2714
     23  CB        53.8540  -11.1830  109.6540 C.3   198  SER198      0.2130
     24  OG        54.9810  -11.1190  108.7960 O.3   198  SER198     -0.2179
     25  N         52.0440   -8.5530  109.3890 N.am  199  CYS199     -0.1953
     26  CA        51.9440   -7.1290  109.1110 C.3   199  CYS199      0.1843
     27  C         52.4740   -6.3070  110.2710 C.2   199  CYS199      0.2625
     28  O         53.0820   -6.8690  111.1870 O.2   199  CYS199     -0.2714
     29  CB        50.5070   -6.7610  108.7610 C.3   199  CYS199      0.0997
     30  SG        50.3510   -5.2820  107.7320 S.3   199  CYS199     -0.0797
     31  N         52.2450   -4.9820  110.2430 N.am  200  GLN200     -0.1963
     32  CA        52.6670   -4.0440  111.2820 C.3   200  GLN200      0.1733
     33  C         52.0830   -4.4600  112.6420 C.2   200  GLN200      0.2616
     34  O         50.8820   -4.7000  112.7650 O.2   200  GLN200     -0.2715
     35  CB        52.3050   -2.6050  110.8740 C.3   200  GLN200      0.0408
     36  CG        52.5580   -1.5350  111.9420 C.3   200  GLN200      0.0908
     37  CD        52.0730   -0.1810  111.4950 C.2   200  GLN200      0.2608
     38  OE1       51.9080    0.0840  110.2960 O.2   200  GLN200     -0.2717
     39  NE2       51.8390    0.7100  112.4480 N.am  200  GLN200     -0.0878
     40  N         52.9570   -4.5970  113.6280 N.am  201  GLY201     -0.1955
     41  CA        52.5750   -5.0460  114.9660 C.3   201  GLY201      0.1869
     42  C         52.8190   -6.5270  115.1970 C.2   201  GLY201      0.2309
     43  O         52.6680   -6.9900  116.3280 O.2   201  GLY201     -0.2863
     44  N         55.8160   -7.7770  114.3950 N.3   203  SER203     -0.1217
     45  CA        57.2780   -7.7100  114.5860 C.3   203  SER203      0.1889
     46  C         57.6450   -8.4090  115.8800 C.2   203  SER203      0.2288
     47  O         56.8230   -8.4220  116.7980 O.2   203  SER203     -0.2866
     48  CB        57.7160   -6.2490  114.6410 C.3   203  SER203      0.2089
     49  OG        57.6910   -5.6800  113.3380 O.3   203  SER203     -0.2183
     50  N         59.7830  -12.4760  113.1410 N.3   221  VAL221     -0.1231
     51  CA        59.2270  -11.4190  112.2740 C.3   221  VAL221      0.1692
     52  C         60.1620  -10.1920  112.3220 C.2   221  VAL221      0.2593
     53  O         60.4280   -9.6530  113.4070 O.2   221  VAL221     -0.2718
     54  CB        57.7730  -11.0370  112.6360 C.3   221  VAL221      0.0266
     55  CG1       57.2650   -9.8850  111.7580 C.3   221  VAL221      0.0020
     56  CG2       56.8440  -12.2330  112.5460 C.3   221  VAL221      0.0020
     57  N         60.7030   -9.7930  111.1440 N.am  222  SER222     -0.1938
     58  CA        61.6610   -8.7020  111.1210 C.3   222  SER222      0.2055
     59  C         61.2480   -7.5260  110.2700 C.2   222  SER222      0.2643
     60  O         61.1740   -6.4100  110.8010 O.2   222  SER222     -0.2714
     61  CB        63.0590   -9.1950  110.7280 C.3   222  SER222      0.2130
     62  OG        64.0260   -8.1530  110.7340 O.3   222  SER222     -0.2179
     63  N         61.0720   -7.7370  108.9600 N.am  223  TRP223     -0.1959
     64  CA        60.8100   -6.6390  108.0250 C.3   223  TRP223      0.1771
     65  C         60.2260   -7.1380  106.7060 C.2   223  TRP223      0.2620
     66  O         60.1220   -8.3410  106.4960 O.2   223  TRP223     -0.2715
     67  CB        62.1180   -5.8550  107.7330 C.3   223  TRP223      0.0590
     68  CG        63.2260   -6.6840  107.1270 C.ar  223  TRP223      0.0006
     69  CD1       64.1530   -7.4290  107.8040 C.ar  223  TRP223      0.0946
     70  CD2       63.6180   -6.7250  105.7380 C.ar  223  TRP223      0.0152
     71  NE1       65.0370   -8.0070  106.9180 N.ar  223  TRP223     -0.2442
     72  CE2       64.7440   -7.5740  105.6440 C.ar  223  TRP223      0.0810
     73  CE3       63.0960   -6.1690  104.5570 C.ar  223  TRP223      0.0012
     74  CZ2       65.3580   -7.8750  104.4170 C.ar  223  TRP223      0.0191
     75  CZ3       63.6810   -6.5020  103.3340 C.ar  223  TRP223      0.0001
     76  CH2       64.8190   -7.3160  103.2770 C.ar  223  TRP223      0.0015
     77  N         59.9030   -6.1940  105.8270 N.am  224  GLY224     -0.1954
     78  CA        59.3600   -6.4460  104.5040 C.3   224  GLY224      0.1869
     79  C         58.7470   -5.1690  103.9880 C.2   224  GLY224      0.2309
     80  O         58.6230   -4.2070  104.7610 O.2   224  GLY224     -0.2863
     81  N         55.4740   -3.4200  102.8620 N.3   226  GLY226     -0.1210
     82  CA        54.0270   -3.5530  103.0300 C.3   226  GLY226      0.1956
     83  C         53.6500   -4.8840  103.6440 C.2   226  GLY226      0.2612
     84  O         54.4820   -5.5310  104.2890 O.2   226  GLY226     -0.2717
     85  N         52.4510   -5.3260  103.4740 N.am  227  CYS227     -0.1970
     86  CA        52.0020   -6.6400  103.9840 C.3   227  CYS227      0.1712
     87  C         51.2310   -7.3560  102.8630 C.2   227  CYS227      0.2296
     88  O         50.5200   -6.7010  102.1970 O.2   227  CYS227     -0.2864
     89  CB        51.2210   -6.4840  105.2810 C.3   227  CYS227      0.0983
     90  SG        51.8220   -5.2720  106.4940 S.3   227  CYS227     -0.0798
     91  N         57.8090  -10.6790  100.1540 N.3   233  PRO233     -0.2102
     92  CA        57.5460  -11.5470  101.3100 C.3   233  PRO233      0.1504
     93  C         57.9600  -10.9910  102.6700 C.2   233  PRO233      0.2576
     94  O         58.6090   -9.9510  102.7720 O.2   233  PRO233     -0.2718
     95  CB        58.2980  -12.8340  100.9710 C.3   233  PRO233      0.0282
     96  CG        59.2280  -12.5080   99.9050 C.3   233  PRO233      0.0208
     97  CD        58.9320  -11.1860   99.3310 C.3   233  PRO233      0.0893
     98  N         57.5540  -11.6900  103.7180 N.am  234  GLY234     -0.1943
     99  CA        57.9670  -11.3260  105.0640 C.3   234  GLY234      0.2014
    100  C         59.3790  -11.8350  105.2770 C.2   234  GLY234      0.2639
    101  O         59.7240  -12.9260  104.8110 O.2   234  GLY234     -0.2714
    102  N         60.2370  -11.0170  105.8810 N.am  235  VAL235     -0.1963
    103  CA        61.6290  -11.4060  106.1130 C.3   235  VAL235      0.1727
    104  C         61.8010  -11.5980  107.6020 C.2   235  VAL235      0.2616
    105  O         61.3490  -10.7680  108.3970 O.2   235  VAL235     -0.2715
    106  CB        62.6550  -10.4490  105.4550 C.3   235  VAL235      0.0290
    107  CG1       64.0730  -11.0300  105.5220 C.3   235  VAL235      0.0023
    108  CG2       62.2610  -10.1610  104.0010 C.3   235  VAL235      0.0023
    109  N         62.4320  -12.7250  107.9580 N.am  236  TYR236     -0.1974
    110  CA        62.6090  -13.2650  109.2930 C.3   236  TYR236      0.1639
    111  C         64.0860  -13.4430  109.7350 C.2   236  TYR236      0.2290
    112  O         64.9380  -13.8630  108.9470 O.2   236  TYR236     -0.2864
    113  CB        61.8480  -14.6210  109.3810 C.3   236  TYR236      0.0560
    114  CG        60.3670  -14.4850  109.0660 C.ar  236  TYR236     -0.0198
    115  CD1       59.8970  -14.5820  107.7560 C.ar  236  TYR236     -0.0009
    116  CD2       59.4490  -14.2100  110.0680 C.ar  236  TYR236     -0.0009
    117  CE1       58.5490  -14.3830  107.4560 C.ar  236  TYR236      0.0417
    118  CE2       58.1050  -14.0030  109.7820 C.ar  236  TYR236      0.0417
    119  CZ        57.6580  -14.0930  108.4750 C.ar  236  TYR236      0.1957
    120  OH        56.3250  -13.9150  108.2180 O.3   236  TYR236     -0.2866
@<TRIPOS>BOND
     1    97    96    1
     2    97    91    1
     3    96    95    1
     4    91    92    1
     5    95    92    1
     6    92    93    1
     7    88    87    2
     8    93    94    2
     9    93    98   am
    10    81    82    1
    11    87    86    1
    12    82    83    1
    13    76    75   ar
    14    76    74   ar
    15    75    73   ar
    16    85    83   am
    17    85    86    1
    18    83    84    2
    19    98    99    1
    20    18    16   ar
    21    86    89    1
    22    79    78    1
    23    79    80    2
    24   108   106    1
    25    74    72   ar
    26    78    77    1
    27    73    70   ar
    28    16    15    1
    29    16    17   ar
    30    15    12    1
    31   101   100    2
    32    99   100    1
    33    11    12    1
    34   100   102   am
    35    89    90    1
    36   106   107    1
    37   106   103    1
    38    72    70   ar
    39    72    71   ar
    40    12    13    1
    41    70    68   ar
    42    77    65   am
    43   102   103    1
    44   103   104    1
    45    90    30    1
    46    66    65    2
    47    65    64    1
    48    71    69   ar
    49    13    14    2
    50    13    19   am
    51    68    67    1
    52    68    69   ar
    53    22    21    2
    54   117   115   ar
    55   117   119   ar
    56   104   109   am
    57   104   105    2
    58    19    20    1
    59    30    29    1
    60    67    64    1
    61   115   114   ar
    62   109   110    1
    63    64    63    1
    64   120   119    1
    65   119   118   ar
    66    21    20    1
    67    21    25   am
    68    29    26    1
    69    24    23    1
    70    20    23    1
    71   112   111    2
    72    63    59   am
    73   114   113    1
    74   114   116   ar
    75    26    25    1
    76    26    27    1
    77   110   113    1
    78   110   111    1
    79   118   116   ar
    80    31    27   am
    81    31    32    1
    82    59    60    2
    83    59    58    1
    84    27    28    2
    85    38    37    2
    86    61    62    1
    87    61    58    1
    88    35    32    1
    89    35    36    1
    90    58    57    1
    91    57    52   am
    92    32    33    1
    93    37    36    1
    94    37    39   am
    95    55    54    1
    96    51    52    1
    97    51    54    1
    98    51    50    1
    99    52    53    2
   100    56    54    1
   101    33    34    2
   102    33    40   am
   103    49    48    1
   104    40    41    1
   105     9    10   ar
   106     9     7   ar
   107    10     8   ar
   108     7     6   ar
   109     8     6   ar
   110     6     5    1
   111    44    45    1
   112    45    48    1
   113    45    46    1
   114     5     2    1
   115    41    42    1
   116    42    43    2
   117    46    47    2
   118     2     1    1
   119     2     3    1
   120     4     3    2
