@<TRIPOS>MOLECULE
tmp/6nmxA00.pdb
 211 200 0 0 0
SMALL
GASTEIGER

@<TRIPOS>ATOM
      1  N        -14.4430   14.0150  -18.2910 N.3    58  SER58      -0.1202
      2  CA       -13.7600   12.7790  -18.6400 C.3    58  SER58       0.2020
      3  C        -12.3290   13.1100  -19.0230 C.2    58  SER58       0.2619
      4  O        -11.9930   14.2630  -19.2820 O.2    58  SER58      -0.2717
      5  CB       -14.4610   12.0360  -19.7900 C.3    58  SER58       0.2103
      6  OG       -14.0480   12.5410  -21.0550 O.3    58  SER58      -0.2182
      7  N        -11.4930   12.0650  -19.0870 N.am   59  PHE59      -0.1961
      8  CA       -10.1040   12.2080  -19.4920 C.3    59  PHE59       0.1771
      9  C         -9.9580   12.6240  -20.9470 C.2    59  PHE59       0.2619
     10  O         -8.8580   13.0250  -21.3530 O.2    59  PHE59      -0.2715
     11  CB        -9.3580   10.8900  -19.2640 C.3    59  PHE59       0.0574
     12  CG        -9.6750    9.8160  -20.2820 C.ar   59  PHE59      -0.0200
     13  CD1       -8.8930    9.6670  -21.4350 C.ar   59  PHE59      -0.0042
     14  CD2      -10.7460    8.9590  -20.0910 C.ar   59  PHE59      -0.0042
     15  CE1       -9.1750    8.6850  -22.3650 C.ar   59  PHE59      -0.0003
     16  CE2      -11.0390    7.9750  -21.0100 C.ar   59  PHE59      -0.0003
     17  CZ       -10.2330    7.8130  -22.1460 C.ar   59  PHE59      -0.0000
     18  N        -11.0280   12.5090  -21.7400 N.am   60  LYS60      -0.1977
     19  CA       -10.9410   12.8780  -23.1460 C.3    60  LYS60       0.1596
     20  C        -10.4650   14.3140  -23.3300 C.2    60  LYS60       0.2287
     21  O         -9.8590   14.6340  -24.3610 O.2    60  LYS60      -0.2864
     22  CB       -12.2900   12.6740  -23.8270 C.3    60  LYS60       0.0298
     23  CG       -12.7850   11.2500  -23.7950 C.3    60  LYS60       0.0038
     24  CD       -11.8010   10.2710  -24.4170 C.3    60  LYS60       0.0206
     25  CE       -12.4060    8.8760  -24.4160 C.3    60  LYS60       0.1093
     26  NZ       -11.5530    7.8450  -25.0750 N.3    60  LYS60      -0.1314
     27  N        -16.3990   10.2360  -34.0440 N.3    82  ALA82      -0.1231
     28  CA       -17.3600    9.2490  -33.5650 C.3    82  ALA82       0.1694
     29  C        -17.1820    9.0450  -32.0620 C.2    82  ALA82       0.2593
     30  O        -16.0650    9.1090  -31.5360 O.2    82  ALA82      -0.2718
     31  CB       -17.1740    7.9180  -34.2830 C.3    82  ALA82       0.0304
     32  N        -18.2830    8.8080  -31.3600 N.am   83  SER83      -0.1938
     33  CA       -18.1300    8.7610  -29.9130 C.3    83  SER83       0.2055
     34  C        -19.2110    7.9130  -29.2670 C.2    83  SER83       0.2643
     35  O        -20.3530    7.8680  -29.7360 O.2    83  SER83      -0.2714
     36  CB       -18.1560   10.1670  -29.3090 C.3    83  SER83       0.2130
     37  OG       -17.9500   10.1340  -27.9000 O.3    83  SER83      -0.2179
     38  N        -18.8340    7.2560  -28.1670 N.am   84  THR84      -0.1950
     39  CA       -19.8290    6.7620  -27.2270 C.3    84  THR84       0.1897
     40  C        -20.3110    7.8580  -26.2790 C.2    84  THR84       0.2313
     41  O        -21.1160    7.5720  -25.3860 O.2    84  THR84      -0.2863
     42  CB       -19.2830    5.5760  -26.4260 C.3    84  THR84       0.1794
     43  OG1      -18.1620    5.9940  -25.6330 O.3    84  THR84      -0.2208
     44  CG2      -18.8590    4.4310  -27.3780 C.3    84  THR84       0.0378
     45  N        -18.2030   10.5430  -24.5620 N.3    86  ASN86      -0.1225
     46  CA       -17.2740   11.4290  -23.8730 C.3    86  ASN86       0.1785
     47  C        -16.3540   12.1730  -24.8450 C.2    86  ASN86       0.2597
     48  O        -16.0510   13.3510  -24.6260 O.2    86  ASN86      -0.2718
     49  CB       -16.5030   10.6460  -22.8210 C.3    86  ASN86       0.1169
     50  CG       -17.3430   10.4220  -21.5820 C.2    86  ASN86       0.2627
     51  OD1      -18.2220   11.2200  -21.2840 O.2    86  ASN86      -0.2716
     52  ND2      -17.1090    9.3360  -20.8890 N.am   86  ASN86      -0.0877
     53  N        -15.9160   11.5250  -25.9250 N.am   87  THR87      -0.1953
     54  CA       -15.0730   12.2120  -26.9050 C.3    87  THR87       0.1897
     55  C        -15.8520   13.3060  -27.6370 C.2    87  THR87       0.2313
     56  O        -15.3200   14.3990  -27.8770 O.2    87  THR87      -0.2863
     57  CB       -14.4840   11.1820  -27.8820 C.3    87  THR87       0.1794
     58  OG1      -13.6420   10.2840  -27.1510 O.3    87  THR87      -0.2208
     59  CG2      -13.6420   11.8450  -28.9690 C.3    87  THR87       0.0378
     60  N        -23.8720   12.9200  -21.4280 N.3   115  LYS115     -0.1245
     61  CA       -23.0350   13.1730  -22.5960 C.3   115  LYS115      0.1561
     62  C        -23.8460   13.7910  -23.7250 C.2   115  LYS115      0.2260
     63  O        -23.3560   14.6700  -24.4480 O.2   115  LYS115     -0.2867
     64  CB       -22.3720   11.8670  -23.0420 C.3   115  LYS115      0.0271
     65  CG       -21.7010   11.1140  -21.8830 C.3   115  LYS115      0.0035
     66  CD       -21.3560    9.6750  -22.2300 C.3   115  LYS115      0.0206
     67  CE       -20.6740    8.9600  -21.0570 C.3   115  LYS115      0.1093
     68  NZ       -20.1460    7.6260  -21.4540 N.3   115  LYS115     -0.1314
     69  N        -20.7710    2.1970  -32.0600 N.3   133  PHE133     -0.1241
     70  CA       -19.6100    3.0740  -32.1480 C.3   133  PHE133      0.1605
     71  C        -18.6990    2.6730  -33.3030 C.2   133  PHE133      0.2264
     72  O        -18.2030    3.5330  -34.0400 O.2   133  PHE133     -0.2867
     73  CB       -18.8020    3.0620  -30.8460 C.3   133  PHE133      0.0534
     74  CG       -17.4470    3.7130  -30.9960 C.ar  133  PHE133     -0.0203
     75  CD1      -17.3210    5.0970  -30.9460 C.ar  133  PHE133     -0.0042
     76  CD2      -16.3090    2.9530  -31.2500 C.ar  133  PHE133     -0.0042
     77  CE1      -16.0800    5.7140  -31.1210 C.ar  133  PHE133     -0.0003
     78  CE2      -15.0580    3.5640  -31.4220 C.ar  133  PHE133     -0.0003
     79  CZ       -14.9480    4.9440  -31.3610 C.ar  133  PHE133     -0.0000
     80  N        -10.7770   11.8420  -33.3770 N.3   153  ASN153     -0.1225
     81  CA       -10.7540   10.5810  -32.6540 C.3   153  ASN153      0.1785
     82  C         -9.3200   10.2350  -32.2500 C.2   153  ASN153      0.2597
     83  O         -8.3510   10.8560  -32.6930 O.2   153  ASN153     -0.2718
     84  CB       -11.3600    9.4660  -33.5050 C.3   153  ASN153      0.1169
     85  CG       -12.8650    9.3970  -33.3820 C.2   153  ASN153      0.2627
     86  OD1      -13.5830    9.6420  -34.3470 O.2   153  ASN153     -0.2716
     87  ND2      -13.3550    9.0490  -32.1880 N.am  153  ASN153     -0.0877
     88  N         -9.1920    9.2040  -31.4130 N.am  154  SER154     -0.1952
     89  CA        -7.9040    8.8380  -30.8270 C.3   154  SER154      0.1924
     90  C         -6.8680    8.3670  -31.8450 C.2   154  SER154      0.2314
     91  O         -5.6840    8.2840  -31.4960 O.2   154  SER154     -0.2863
     92  CB        -8.1090    7.7420  -29.7790 C.3   154  SER154      0.2116
     93  OG        -8.8140    6.6580  -30.3560 O.3   154  SER154     -0.2180
     94  N         -4.1130   13.2660  -29.9640 N.3   159  ARG159     -0.1245
     95  CA        -4.9520   12.8150  -28.8570 C.3   159  ARG159      0.1563
     96  C         -4.1330   12.0240  -27.8430 C.2   159  ARG159      0.2260
     97  O         -4.2200   12.2610  -26.6350 O.2   159  ARG159     -0.2867
     98  CB        -6.1130   11.9610  -29.3810 C.3   159  ARG159      0.0307
     99  CG        -7.2730   12.7500  -29.9850 C.3   159  ARG159      0.0489
    100  CD        -8.2140   13.3380  -28.9000 C.3   159  ARG159      0.2205
    101  NE        -8.5490   12.3350  -27.8950 N.pl3 159  ARG159     -0.0865
    102  CZ        -9.4600   11.3750  -28.0420 C.cat 159  ARG159      0.5346
    103  NH1      -10.1810   11.2770  -29.1600 N.pl3 159  ARG159      0.1354
    104  NH2       -9.6550   10.5110  -27.0500 N.pl3 159  ARG159      0.1354
    105  N         -3.1640   12.7340  -23.9300 N.3   163  GLN163     -0.1245
    106  CA        -3.6330   11.8120  -22.8940 C.3   163  GLN163      0.1566
    107  C         -2.4890   11.2100  -22.0760 C.2   163  GLN163      0.2260
    108  O         -2.7190   10.7880  -20.9420 O.2   163  GLN163     -0.2867
    109  CB        -4.5040   10.7280  -23.5400 C.3   163  GLN163      0.0367
    110  CG        -5.9070   11.2590  -23.8420 C.3   163  GLN163      0.0905
    111  CD        -6.7120   10.4150  -24.8020 C.2   163  GLN163      0.2608
    112  OE1       -7.5390   10.9430  -25.5450 O.2   163  GLN163     -0.2717
    113  NE2       -6.4920    9.1110  -24.7910 N.am  163  GLN163     -0.0878
    114  N         -9.6780    1.1600  -17.7460 N.3   184  PRO184     -0.2102
    115  CA       -10.6500    0.5890  -18.6850 C.3   184  PRO184      0.1504
    116  C        -10.1030    0.6160  -20.0960 C.2   184  PRO184      0.2576
    117  O         -9.2950    1.4700  -20.4600 O.2   184  PRO184     -0.2718
    118  CB       -11.8690    1.5210  -18.5640 C.3   184  PRO184      0.0282
    119  CG       -11.6220    2.3490  -17.2930 C.3   184  PRO184      0.0208
    120  CD       -10.1170    2.4790  -17.2490 C.3   184  PRO184      0.0893
    121  N        -10.5610   -0.3290  -20.9030 N.am  185  VAL185     -0.1966
    122  CA       -10.1670   -0.3890  -22.2990 C.3   185  VAL185      0.1727
    123  C        -11.4400   -0.3930  -23.1310 C.2   185  VAL185      0.2617
    124  O        -12.2700   -1.2900  -22.9900 O.2   185  VAL185     -0.2715
    125  CB        -9.2950   -1.6190  -22.6000 C.3   185  VAL185      0.0290
    126  CG1       -8.9830   -1.6860  -24.1040 C.3   185  VAL185      0.0023
    127  CG2       -7.9970   -1.5560  -21.7780 C.3   185  VAL185      0.0023
    128  N        -11.6160    0.6320  -23.9500 N.am  186  GLY186     -0.1940
    129  CA       -12.6450    0.6110  -24.9690 C.3   186  GLY186      0.2014
    130  C        -11.9940    0.5810  -26.3420 C.2   186  GLY186      0.2639
    131  O        -11.8020   -0.4910  -26.9300 O.2   186  GLY186     -0.2714
    132  N        -11.6350    1.7590  -26.8540 N.am  187  ASN187     -0.1958
    133  CA       -10.9140    1.8750  -28.1190 C.3   187  ASN187      0.1819
    134  C         -9.4040    1.7110  -27.9500 C.2   187  ASN187      0.2621
    135  O         -8.6700    1.8220  -28.9410 O.2   187  ASN187     -0.2715
    136  CB       -11.2250    3.2270  -28.7580 C.3   187  ASN187      0.1195
    137  CG       -11.4340    3.1400  -30.2450 C.2   187  ASN187      0.2630
    138  OD1      -11.6400    2.0600  -30.8010 O.2   187  ASN187     -0.2716
    139  ND2      -11.3550    4.2870  -30.9120 N.am  187  ASN187     -0.0877
    140  N         -8.9440    1.4910  -26.7170 N.am  188  ALA188     -0.1963
    141  CA        -7.5810    1.1610  -26.3020 C.3   188  ALA188      0.1728
    142  C         -6.5710    2.2980  -26.4640 C.2   188  ALA188      0.2617
    143  O         -5.3860    2.0670  -26.2430 O.2   188  ALA188     -0.2715
    144  CB        -7.0370   -0.0820  -27.0250 C.3   188  ALA188      0.0334
    145  N         -6.9900    3.5120  -26.8290 N.am  189  GLY189     -0.1940
    146  CA        -6.0350    4.6080  -26.9020 C.3   189  GLY189      0.2014
    147  C         -5.4600    4.9940  -25.5470 C.2   189  GLY189      0.2639
    148  O         -4.2820    5.3420  -25.4430 O.2   189  GLY189     -0.2714
    149  N         -6.2650    4.9080  -24.4840 N.am  190  ASN190     -0.1958
    150  CA        -5.8260    5.4450  -23.1920 C.3   190  ASN190      0.1819
    151  C         -4.7280    4.5930  -22.5690 C.2   190  ASN190      0.2621
    152  O         -3.7410    5.1310  -22.0540 O.2   190  ASN190     -0.2715
    153  CB        -7.0090    5.5670  -22.2330 C.3   190  ASN190      0.1195
    154  CG        -6.8490    6.7130  -21.2280 C.2   190  ASN190      0.2630
    155  OD1       -6.0670    7.6390  -21.4360 O.2   190  ASN190     -0.2716
    156  ND2       -7.6190    6.6570  -20.1390 N.am  190  ASN190     -0.0877
    157  N         -4.8830    3.2650  -22.5750 N.am  191  ILE191     -0.1977
    158  CA        -3.8270    2.4280  -22.0190 C.3   191  ILE191      0.1596
    159  C         -2.5320    2.6130  -22.8030 C.2   191  ILE191      0.2287
    160  O         -1.4400    2.5850  -22.2230 O.2   191  ILE191     -0.2864
    161  CB        -4.2600    0.9530  -21.9840 C.3   191  ILE191      0.0276
    162  CG1       -3.1980    0.1060  -21.2710 C.3   191  ILE191      0.0022
    163  CG2       -4.6060    0.4520  -23.3970 C.3   191  ILE191      0.0022
    164  CD1       -3.6080   -1.3320  -21.0480 C.3   191  ILE191      0.0001
    165  N        -19.8790    3.5060  -22.3900 N.3   238  ALA238     -0.1231
    166  CA       -18.6260    4.1860  -22.7210 C.3   238  ALA238      0.1694
    167  C        -17.6560    3.2700  -23.4580 C.2   238  ALA238      0.2591
    168  O        -16.9270    3.7290  -24.3430 O.2   238  ALA238     -0.2718
    169  CB       -17.9550    4.7170  -21.4490 C.3   238  ALA238      0.0304
    170  N        -17.6440    1.9780  -23.1250 N.am  239  ILE239     -0.1980
    171  CA       -16.6210    1.0560  -23.6160 C.3   239  ILE239      0.1595
    172  C        -17.2530   -0.0630  -24.4440 C.2   239  ILE239      0.2287
    173  O        -16.7040   -1.1700  -24.5450 O.2   239  ILE239     -0.2864
    174  CB       -15.8010    0.4940  -22.4420 C.3   239  ILE239      0.0276
    175  CG1      -16.6860   -0.3340  -21.5140 C.3   239  ILE239      0.0022
    176  CG2      -15.1680    1.6480  -21.6360 C.3   239  ILE239      0.0022
    177  CD1      -15.9800   -0.8230  -20.2700 C.3   239  ILE239      0.0001
    178  N        -17.3980   -1.2940  -27.4560 N.3   241  ILE241     -0.1245
    179  CA       -16.5290   -1.1110  -28.6190 C.3   241  ILE241      0.1561
    180  C        -15.9030   -2.4580  -28.9470 C.2   241  ILE241      0.2260
    181  O        -15.1900   -3.0310  -28.1150 O.2   241  ILE241     -0.2867
    182  CB       -15.4260   -0.0660  -28.3600 C.3   241  ILE241      0.0252
    183  CG1      -16.0420    1.3260  -28.1960 C.3   241  ILE241      0.0019
    184  CG2      -14.3900   -0.0870  -29.4870 C.3   241  ILE241      0.0019
    185  CD1      -15.0980    2.3670  -27.6280 C.3   241  ILE241      0.0001
    186  N        -18.6560    6.9750  -13.7020 N.3   285  GLU285     -0.1245
    187  CA       -19.5870    6.3080  -14.6090 C.3   285  GLU285      0.1567
    188  C        -19.2310    4.8200  -14.7440 C.2   285  GLU285      0.2260
    189  O        -18.1140    4.4000  -14.4090 O.2   285  GLU285     -0.2867
    190  CB       -19.6240    7.0220  -15.9700 C.3   285  GLU285      0.0388
    191  CG       -18.4370    6.7840  -16.9300 C.3   285  GLU285      0.1160
    192  CD       -18.7170    7.3230  -18.3220 C.2   285  GLU285      0.3649
    193  OE1      -19.2960    6.5680  -19.1290 O.co2 285  GLU285     -0.2457
    194  OE2      -18.3640    8.5000  -18.6150 O.co2 285  GLU285     -0.2457
    195  N        -15.9340    3.5300  -16.3770 N.3   288  SER288     -0.1217
    196  CA       -14.7710    3.8320  -15.5550 C.3   288  SER288      0.1889
    197  C        -14.5270    2.7580  -14.5040 C.2   288  SER288      0.2288
    198  O        -13.3730    2.4150  -14.2040 O.2   288  SER288     -0.2866
    199  CB       -14.9700    5.1920  -14.9010 C.3   288  SER288      0.2089
    200  OG       -15.1780    6.1600  -15.9100 O.3   288  SER288     -0.2183
    201  N        -12.2390    7.1140  -15.3180 N.3   315  THR315     -0.1203
    202  CA       -12.1230    7.8730  -16.5550 C.3   315  THR315      0.1994
    203  C        -13.2130    8.9290  -16.7120 C.2   315  THR315      0.2618
    204  O        -13.0210    9.9100  -17.4400 O.2   315  THR315     -0.2717
    205  CB       -12.1710    6.8860  -17.7180 C.3   315  THR315      0.1784
    206  OG1      -13.1640    5.8990  -17.4360 O.3   315  THR315     -0.2211
    207  CG2      -10.8120    6.1780  -17.8980 C.3   315  THR315      0.0376
    208  N        -14.3580    8.7460  -16.0660 N.am  316  GLY316     -0.1956
    209  CA       -15.5040    9.5980  -16.3380 C.3   316  GLY316      0.1869
    210  C        -16.3350    9.8530  -15.1030 C.2   316  GLY316      0.2309
    211  O        -16.4570    8.9970  -14.2180 O.2   316  GLY316     -0.2863
@<TRIPOS>BOND
     1    86    85    2
     2    31    28    1
     3    27    28    1
     4    72    71    2
     5    28    29    1
     6    84    85    1
     7    84    81    1
     8    85    87   am
     9    80    81    1
    10    71    70    1
    11    83    82    2
    12    81    82    1
    13    82    88   am
    14    70    69    1
    15    70    73    1
    16    29    30    2
    17    29    32   am
    18    90    91    2
    19    90    89    1
    20    78    79   ar
    21    78    76   ar
    22    88    89    1
    23    79    77   ar
    24    32    33    1
    25    76    74   ar
    26    77    75   ar
    27    74    75   ar
    28    74    73    1
    29   139   137   am
    30    89    92    1
    31   138   137    2
    32    93    92    1
    33   137   136    1
    34    99    98    1
    35    99   100    1
    36    94    95    1
    37    33    36    1
    38    33    34    1
    39    35    34    2
    40   184   182    1
    41    98    95    1
    42    36    37    1
    43    34    38   am
    44   103   102    1
    45    59    57    1
    46   180   179    1
    47   180   181    2
    48   135   134    2
    49   100   101    1
    50    95    96    1
    51   136   133    1
    52   179   182    1
    53   179   178    1
    54   182   183    1
    55   183   185    1
    56    38    39    1
    57   133   134    1
    58   133   132    1
    59   102   101    2
    60   102   104    1
    61   134   140   am
    62    57    58    1
    63    57    54    1
    64    56    55    2
    65    96    97    2
    66    55    54    1
    67    44    42    1
    68    39    42    1
    69    39    40    1
    70   144   141    1
    71   131   130    2
    72    54    53    1
    73   146   145    1
    74   146   147    1
    75   132   130   am
    76   145   142   am
    77   140   141    1
    78   142   141    1
    79   142   143    2
    80    42    43    1
    81   130   129    1
    82    40    41    2
    83    53    47   am
    84   147   148    2
    85   147   149   am
    86   112   111    2
    87    26    25    1
    88   129   128    1
    89    47    48    2
    90    47    46    1
    91   111   113   am
    92   111   110    1
    93    45    46    1
    94   173   172    2
    95   149   150    1
    96    63    62    2
    97   172   171    1
    98    24    25    1
    99    24    23    1
   100    21    20    2
   101   168   167    2
   102   126   125    1
   103   128   123   am
   104   105   106    1
   105    46    49    1
   106   110   109    1
   107    22    23    1
   108    22    19    1
   109    62    61    1
   110   171   170    1
   111   171   174    1
   112   109   106    1
   113   167   170   am
   114   167   166    1
   115   163   161    1
   116    20    19    1
   117   150   151    1
   118   150   153    1
   119    19    18    1
   120   123   124    2
   121   123   122    1
   122    64    61    1
   123    64    65    1
   124   106   107    1
   125    49    50    1
   126   159   160    2
   127   159   158    1
   128   166   165    1
   129   166   169    1
   130   125   122    1
   131   125   127    1
   132    61    60    1
   133   157   151   am
   134   157   158    1
   135   151   152    2
   136   174   176    1
   137   174   175    1
   138    15    17   ar
   139    15    13   ar
   140   122   121    1
   141   153   154    1
   142    66    65    1
   143    66    67    1
   144    17    16   ar
   145   107   108    2
   146   158   161    1
   147   161   162    1
   148    18     9   am
   149    50    51    2
   150    50    52   am
   151   175   177    1
   152    68    67    1
   153   155   154    2
   154    13    12   ar
   155    10     9    2
   156   162   164    1
   157   154   156   am
   158     6     5    1
   159    16    14   ar
   160     9     8    1
   161   121   116   am
   162   117   116    2
   163    12    14   ar
   164    12    11    1
   165   116   115    1
   166     5     2    1
   167     8    11    1
   168     8     7    1
   169     4     3    2
   170   193   192   ar
   171     7     3   am
   172     3     2    1
   173   115   118    1
   174   115   114    1
   175     2     1    1
   176   194   192   ar
   177   118   119    1
   178   192   191    1
   179   207   205    1
   180   114   120    1
   181   205   206    1
   182   205   202    1
   183   204   203    2
   184   119   120    1
   185   191   190    1
   186   203   202    1
   187   203   208   am
   188   202   201    1
   189   195   196    1
   190   209   208    1
   191   209   210    1
   192   190   187    1
   193   200   199    1
   194   196   199    1
   195   196   197    1
   196   210   211    2
   197   188   187    1
   198   188   189    2
   199   187   186    1
   200   197   198    2
