@<TRIPOS>MOLECULE
tmp/6nnaA01.pdb
 174 168 0 0 0
SMALL
GASTEIGER

@<TRIPOS>ATOM
      1  N         14.2630   -5.7310  -30.2940 N.3   123  HIS123     -0.1227
      2  CA        14.4980   -4.3210  -29.8790 C.3   123  HIS123      0.1737
      3  C         15.5330   -3.6940  -30.8100 C.2   123  HIS123      0.2438
      4  O         16.6310   -4.2320  -30.9590 O.2   123  HIS123     -0.2733
      5  CB        14.9500   -4.2550  -28.4170 C.3   123  HIS123      0.0758
      6  CG        14.8420   -2.8950  -27.8190 C.ar  123  HIS123      0.0818
      7  ND1       15.4580   -1.7960  -28.3770 N.ar  123  HIS123     -0.2268
      8  CD2       14.2040   -2.4540  -26.7130 C.ar  123  HIS123      0.1154
      9  CE1       15.1980   -0.7280  -27.6500 C.ar  123  HIS123      0.1986
     10  NE2       14.4260   -1.1060  -26.6180 N.ar  123  HIS123     -0.2212
     11  N         15.2320   -2.5430  -31.4560 N.am  124  PRO124     -0.2718
     12  CA        16.1050   -1.9920  -32.4930 C.3   124  PRO124      0.1535
     13  C         17.3670   -1.2640  -32.0010 C.2   124  PRO124      0.2598
     14  O         18.3170   -1.2410  -32.7380 O.2   124  PRO124     -0.2715
     15  CB        15.1830   -1.0000  -33.2160 C.3   124  PRO124      0.0310
     16  CG        14.2570   -0.5080  -32.1280 C.3   124  PRO124      0.0237
     17  CD        14.0280   -1.7200  -31.2490 C.3   124  PRO124      0.0939
     18  N         17.3540   -0.6880  -30.8000 N.am  125  LEU125     -0.1978
     19  CA        18.4670    0.1610  -30.2870 C.3   125  LEU125      0.1596
     20  C         19.2940   -0.5630  -29.2160 C.2   125  LEU125      0.2287
     21  O         20.4570   -0.1710  -29.0330 O.2   125  LEU125     -0.2864
     22  CB        17.8800    1.4640  -29.7360 C.3   125  LEU125      0.0297
     23  CG        17.2000    2.3510  -30.7770 C.3   125  LEU125      0.0022
     24  CD1       16.5310    3.5510  -30.1270 C.3   125  LEU125      0.0001
     25  CD2       18.1950    2.8030  -31.8360 C.3   125  LEU125      0.0001
     26  N          3.6400   19.2870  -34.5860 N.3   474  LEU474     -0.1245
     27  CA         4.9910   18.9340  -34.0780 C.3   474  LEU474      0.1561
     28  C          5.7270   20.2080  -33.6550 C.2   474  LEU474      0.2260
     29  O          5.7590   21.1570  -34.4590 O.2   474  LEU474     -0.2867
     30  CB         5.7820   18.2030  -35.1660 C.3   474  LEU474      0.0270
     31  CG         5.4120   16.7410  -35.4260 C.3   474  LEU474      0.0019
     32  CD1        6.4360   16.1000  -36.3520 C.3   474  LEU474      0.0001
     33  CD2        5.2980   15.9410  -34.1350 C.3   474  LEU474      0.0001
     34  N          9.2310   19.7970  -32.2630 N.3   476  ASP476     -0.1239
     35  CA        10.3860   18.9540  -31.8670 C.3   476  ASP476      0.1674
     36  C         11.4980   19.8620  -31.3170 C.2   476  ASP476      0.2266
     37  O         11.6660   21.0190  -31.7870 O.2   476  ASP476     -0.2867
     38  CB        10.8520   18.0440  -33.0140 C.3   476  ASP476      0.1410
     39  CG         9.8570   16.9520  -33.4210 C.2   476  ASP476      0.3668
     40  OD1        8.8560   16.7460  -32.6920 O.co2 476  ASP476     -0.2456
     41  OD2       10.0800   16.3200  -34.4820 O.co2 476  ASP476     -0.2456
     42  N          2.1200    7.0370  -31.0810 N.3   520  SER520     -0.1202
     43  CA         3.4610    6.8970  -31.7010 C.3   520  SER520      0.2020
     44  C          4.3440    6.0130  -30.8220 C.2   520  SER520      0.2619
     45  O          4.1360    5.9940  -29.5840 O.2   520  SER520     -0.2717
     46  CB         4.0870    8.2510  -31.9250 C.3   520  SER520      0.2103
     47  OG         5.3930    8.1400  -32.4750 O.3   520  SER520     -0.2182
     48  N          5.2780    5.3050  -31.4620 N.am  521  VAL521     -0.1965
     49  CA         6.4770    4.6930  -30.8170 C.3   521  VAL521      0.1727
     50  C          7.2360    5.7640  -30.0080 C.2   521  VAL521      0.2616
     51  O          7.8920    5.4000  -29.0380 O.2   521  VAL521     -0.2715
     52  CB         7.3440    4.0100  -31.8930 C.3   521  VAL521      0.0290
     53  CG1        8.0110    5.0000  -32.8310 C.3   521  VAL521      0.0023
     54  CG2        8.3660    3.0560  -31.3150 C.3   521  VAL521      0.0023
     55  N          7.1480    7.0480  -30.3710 N.am  522  SER522     -0.1950
     56  CA         7.7820    8.1720  -29.6320 C.3   522  SER522      0.1924
     57  C          7.2600    8.2100  -28.1920 C.2   522  SER522      0.2314
     58  O          8.0150    8.6050  -27.3060 O.2   522  SER522     -0.2863
     59  CB         7.5290    9.4860  -30.3160 C.3   522  SER522      0.2116
     60  OG         8.2170    9.5650  -31.5530 O.3   522  SER522     -0.2180
     61  N          7.8600    3.9940  -26.6560 N.3   525  ARG525     -0.1231
     62  CA         9.2730    3.6200  -26.3750 C.3   525  ARG525      0.1694
     63  C         10.1170    4.8460  -26.0160 C.2   525  ARG525      0.2593
     64  O         11.0810    4.6700  -25.2570 O.2   525  ARG525     -0.2718
     65  CB         9.9100    2.9190  -27.5770 C.3   525  ARG525      0.0321
     66  CG         8.9810    1.9910  -28.3490 C.3   525  ARG525      0.0489
     67  CD         8.1720    1.0540  -27.4830 C.3   525  ARG525      0.2205
     68  NE         8.5800   -0.3330  -27.4420 N.pl3 525  ARG525     -0.0865
     69  CZ         7.9350   -1.3520  -28.0030 C.cat 525  ARG525      0.5346
     70  NH1        8.4070   -2.5640  -27.8130 N.pl3 525  ARG525      0.1354
     71  NH2        6.8580   -1.1790  -28.7580 N.pl3 525  ARG525      0.1354
     72  N          9.8130    6.0220  -26.5770 N.am  526  GLY526     -0.1942
     73  CA        10.5770    7.2600  -26.3380 C.3   526  GLY526      0.2014
     74  C         11.3540    7.6990  -27.5650 C.2   526  GLY526      0.2638
     75  O         11.9130    6.8280  -28.2790 O.2   526  GLY526     -0.2714
     76  N         11.4120    9.0130  -27.8010 N.am  527  ASN527     -0.1972
     77  CA        12.2270    9.6150  -28.8850 C.3   527  ASN527      0.1688
     78  C         12.7710   10.9660  -28.4090 C.2   527  ASN527      0.2292
     79  O         11.9470   11.8520  -28.0560 O.2   527  ASN527     -0.2864
     80  CB        11.4330    9.7310  -30.1850 C.3   527  ASN527      0.1181
     81  CG        12.3110   10.0700  -31.3680 C.2   527  ASN527      0.2629
     82  OD1       13.4990    9.7510  -31.3710 O.2   527  ASN527     -0.2716
     83  ND2       11.7400   10.7220  -32.3710 N.am  527  ASN527     -0.0877
     84  N         11.2390   14.9310  -28.5190 N.3   530  GLN530     -0.1245
     85  CA         9.7750   14.8480  -28.7540 C.3   530  GLN530      0.1566
     86  C          9.0200   14.6690  -27.4320 C.2   530  GLN530      0.2260
     87  O          7.9270   14.0960  -27.4750 O.2   530  GLN530     -0.2867
     88  CB         9.4710   13.6950  -29.7110 C.3   530  GLN530      0.0367
     89  CG        10.0410   13.8760  -31.1090 C.3   530  GLN530      0.0905
     90  CD         9.2030   13.1180  -32.1070 C.2   530  GLN530      0.2608
     91  OE1        9.2720   11.8900  -32.1870 O.2   530  GLN530     -0.2717
     92  NE2        8.3680   13.8390  -32.8410 N.am  530  GLN530     -0.0878
     93  N          5.3280   15.6840  -27.5970 N.3   533  TYR533     -0.1241
     94  CA         4.6270   14.6750  -28.4420 C.3   533  TYR533      0.1605
     95  C          4.4580   13.3730  -27.6420 C.2   533  TYR533      0.2264
     96  O          3.3770   12.7530  -27.6860 O.2   533  TYR533     -0.2867
     97  CB         5.4300   14.5120  -29.7360 C.3   533  TYR533      0.0534
     98  CG         4.8870   13.6160  -30.8250 C.ar  533  TYR533     -0.0201
     99  CD1        3.7730   13.9670  -31.5770 C.ar  533  TYR533     -0.0009
    100  CD2        5.5650   12.4610  -31.1820 C.ar  533  TYR533     -0.0009
    101  CE1        3.3220   13.1630  -32.6140 C.ar  533  TYR533      0.0417
    102  CE2        5.1500   11.6660  -32.2340 C.ar  533  TYR533      0.0417
    103  CZ         4.0180   12.0110  -32.9520 C.ar  533  TYR533      0.1957
    104  OH         3.5970   11.2040  -33.9760 O.3   533  TYR533     -0.2866
    105  N          1.9600    3.7260  -33.7360 N.3   559  TRP559     -0.1227
    106  CA         2.6840    3.5240  -35.0130 C.3   559  TRP559      0.1737
    107  C          4.1680    3.8120  -34.8030 C.2   559  TRP559      0.2596
    108  O          4.4920    4.8290  -34.1740 O.2   559  TRP559     -0.2718
    109  CB         2.1050    4.4180  -36.1030 C.3   559  TRP559      0.0564
    110  CG         0.7030    4.0570  -36.4640 C.ar  559  TRP559      0.0003
    111  CD1       -0.4290    4.7640  -36.1850 C.ar  559  TRP559      0.0946
    112  CD2        0.2790    2.8660  -37.1450 C.ar  559  TRP559      0.0152
    113  NE1       -1.5240    4.1120  -36.6780 N.ar  559  TRP559     -0.2442
    114  CE2       -1.1250    2.9420  -37.2620 C.ar  559  TRP559      0.0810
    115  CE3        0.9420    1.7440  -37.6500 C.ar  559  TRP559      0.0012
    116  CZ2       -1.8710    1.9440  -37.8850 C.ar  559  TRP559      0.0191
    117  CZ3        0.2060    0.7640  -38.2760 C.ar  559  TRP559      0.0001
    118  CH2       -1.1780    0.8680  -38.3940 C.ar  559  TRP559      0.0015
    119  N          5.0340    2.9470  -35.3220 N.am  560  GLY560     -0.1942
    120  CA         6.4010    3.3550  -35.6790 C.3   560  GLY560      0.2014
    121  C          6.3590    4.3260  -36.8480 C.2   560  GLY560      0.2638
    122  O          5.2440    4.7810  -37.2130 O.2   560  GLY560     -0.2714
    123  N          7.5190    4.6410  -37.4200 N.am  561  ALA561     -0.1977
    124  CA         7.6590    5.4920  -38.6250 C.3   561  ALA561      0.1597
    125  C          6.6890    4.9670  -39.6880 C.2   561  ALA561      0.2287
    126  O          6.5160    3.7440  -39.7510 O.2   561  ALA561     -0.2864
    127  CB         9.0930    5.4750  -39.1240 C.3   561  ALA561      0.0319
    128  N          4.0200   12.9420  -42.2560 N.3   567  ILE567     -0.1231
    129  CA         5.0550   13.8670  -41.7010 C.3   567  ILE567      0.1692
    130  C          6.4540   13.3460  -42.0520 C.2   567  ILE567      0.2591
    131  O          7.2460   14.1220  -42.6260 O.2   567  ILE567     -0.2718
    132  CB         4.9060   14.0300  -40.1750 C.3   567  ILE567      0.0266
    133  CG1        3.7120   14.9130  -39.8100 C.3   567  ILE567      0.0019
    134  CG2        6.1970   14.5630  -39.5630 C.3   567  ILE567      0.0020
    135  CD1        3.3560   14.8780  -38.3450 C.3   567  ILE567      0.0001
    136  N          6.7570   12.1040  -41.6640 N.am  568  LEU568     -0.1980
    137  CA         8.1200   11.5130  -41.7340 C.3   568  LEU568      0.1596
    138  C          8.6510   11.6370  -43.1690 C.2   568  LEU568      0.2287
    139  O          9.7700   12.1620  -43.3330 O.2   568  LEU568     -0.2864
    140  CB         8.0700   10.0520  -41.2730 C.3   568  LEU568      0.0297
    141  CG         9.4150    9.3230  -41.2540 C.3   568  LEU568      0.0022
    142  CD1        9.9210    9.1470  -39.8350 C.3   568  LEU568      0.0001
    143  CD2        9.3120    7.9760  -41.9490 C.3   568  LEU568      0.0001
    144  N         15.3150    4.3340  -39.4580 N.3   574  VAL574     -0.1231
    145  CA        15.0420    5.3180  -38.3680 C.3   574  VAL574      0.1692
    146  C         15.1590    4.5980  -37.0190 C.2   574  VAL574      0.2592
    147  O         14.3500    3.6980  -36.7570 O.2   574  VAL574     -0.2718
    148  CB        13.6570    5.9750  -38.5330 C.3   574  VAL574      0.0266
    149  CG1       13.4670    7.1130  -37.5490 C.3   574  VAL574      0.0020
    150  CG2       13.4150    6.4770  -39.9490 C.3   574  VAL574      0.0020
    151  N         16.1050    4.9970  -36.1700 N.am  575  SER575     -0.1952
    152  CA        16.3420    4.3360  -34.8600 C.3   575  SER575      0.1924
    153  C         16.2310    2.8170  -35.0350 C.2   575  SER575      0.2314
    154  O         15.4750    2.1990  -34.2650 O.2   575  SER575     -0.2863
    155  CB        15.3600    4.8320  -33.8200 C.3   575  SER575      0.2116
    156  OG        15.5300    6.2200  -33.5840 O.3   575  SER575     -0.2180
    157  N         14.7510    0.9860  -37.2990 N.3   577  THR577     -0.1218
    158  CA        13.4310    0.5390  -37.8160 C.3   577  THR577      0.1862
    159  C         13.2850    1.0070  -39.2630 C.2   577  THR577      0.2287
    160  O         13.9720    1.9780  -39.6470 O.2   577  THR577     -0.2866
    161  CB        12.2650    1.0420  -36.9480 C.3   577  THR577      0.1770
    162  OG1       12.0990    2.4520  -37.1050 O.3   577  THR577     -0.2211
    163  CG2       12.4560    0.7270  -35.4800 C.3   577  THR577      0.0375
    164  N          5.4710   -1.7130  -35.4990 N.3   603  PHE603     -0.1241
    165  CA         6.7080   -1.1470  -36.0890 C.3   603  PHE603      0.1605
    166  C          7.4480   -2.2600  -36.8220 C.2   603  PHE603      0.2264
    167  O          7.2110   -3.4540  -36.5160 O.2   603  PHE603     -0.2867
    168  CB         7.5940   -0.5050  -35.0230 C.3   603  PHE603      0.0534
    169  CG         8.3100   -1.4950  -34.1500 C.ar  603  PHE603     -0.0203
    170  CD1        7.7050   -1.9980  -33.0070 C.ar  603  PHE603     -0.0042
    171  CD2        9.5750   -1.9410  -34.4850 C.ar  603  PHE603     -0.0042
    172  CE1        8.3540   -2.9330  -32.2130 C.ar  603  PHE603     -0.0003
    173  CE2       10.2290   -2.8650  -33.6830 C.ar  603  PHE603     -0.0003
    174  CZ         9.6200   -3.3550  -32.5470 C.ar  603  PHE603     -0.0000
@<TRIPOS>BOND
     1   139   138    2
     2   138   137    1
     3   131   130    2
     4   128   129    1
     5   130   129    1
     6   130   136   am
     7   143   141    1
     8   137   136    1
     9   137   140    1
    10   129   132    1
    11   140   141    1
    12   141   142    1
    13   132   133    1
    14   132   134    1
    15   150   148    1
    16   133   135    1
    17   126   125    2
    18   125   124    1
    19   160   159    2
    20   144   145    1
    21   159   158    1
    22   127   124    1
    23   124   123    1
    24   148   145    1
    25   148   149    1
    26   118   117   ar
    27   118   116   ar
    28   145   146    1
    29   117   115   ar
    30   116   114   ar
    31   158   157    1
    32   158   161    1
    33   115   112   ar
    34   123   121   am
    35   114   112   ar
    36   114   113   ar
    37   122   121    2
    38   112   110   ar
    39   162   161    1
    40   146   147    2
    41   146   151   am
    42   161   163    1
    43   121   120    1
    44   166   167    2
    45   166   165    1
    46   113   111   ar
    47   110   111   ar
    48   110   109    1
    49    32    31    1
    50   151   152    1
    51   109   106    1
    52   165   164    1
    53   165   168    1
    54   120   119    1
    55    31    30    1
    56    31    33    1
    57   119   107   am
    58    30    27    1
    59   153   152    1
    60   153   154    2
    61   168   169    1
    62   106   107    1
    63   106   105    1
    64   152   155    1
    65   107   108    2
    66    26    27    1
    67   171   169   ar
    68   171   173   ar
    69    41    39   ar
    70    29    28    2
    71   169   170   ar
    72    27    28    1
    73   104   103    1
    74   155   156    1
    75   173   174   ar
    76    39    38    1
    77    39    40   ar
    78    15    12    1
    79    15    16    1
    80    38    35    1
    81   170   172   ar
    82   103   101   ar
    83   103   102   ar
    84    92    90   am
    85    53    52    1
    86    14    13    2
    87   101    99   ar
    88   174   172   ar
    89    12    13    1
    90    12    11    1
    91    47    46    1
    92    83    81   am
    93    34    35    1
    94   102   100   ar
    95    91    90    2
    96    16    17    1
    97    90    89    1
    98    13    18   am
    99    46    43    1
   100    52    54    1
   101    52    49    1
   102    35    36    1
   103    25    23    1
   104    37    36    2
   105    43    42    1
   106    43    44    1
   107    99    98   ar
   108    60    59    1
   109    48    44   am
   110    48    49    1
   111    11    17    1
   112    11     3   am
   113    82    81    2
   114    81    80    1
   115   100    98   ar
   116    89    88    1
   117     4     3    2
   118    98    97    1
   119    44    45    2
   120    49    50    1
   121     3     2    1
   122    18    19    1
   123    23    24    1
   124    23    22    1
   125    55    50   am
   126    55    56    1
   127    59    56    1
   128     1     2    1
   129    19    22    1
   130    19    20    1
   131    80    77    1
   132    50    51    2
   133     2     5    1
   134    97    94    1
   135    88    85    1
   136    56    57    1
   137    20    21    2
   138    77    78    1
   139    77    76    1
   140    71    69    1
   141    85    84    1
   142    85    86    1
   143    94    95    1
   144    94    93    1
   145     5     6    1
   146    78    79    2
   147     7     6   ar
   148     7     9   ar
   149    66    65    1
   150    66    67    1
   151    75    74    2
   152    57    58    2
   153    69    70    1
   154    69    68    2
   155     6     8   ar
   156    76    74   am
   157    96    95    2
   158     9    10   ar
   159    65    62    1
   160    74    73    1
   161    67    68    1
   162    87    86    2
   163     8    10   ar
   164    61    62    1
   165    72    73    1
   166    72    63   am
   167    62    63    1
   168    63    64    2
