@<TRIPOS>MOLECULE
tmp/6no9A00.pdb
 162 150 0 0 0
SMALL
GASTEIGER

@<TRIPOS>ATOM
      1  N        -41.1290    4.3210   11.2310 N.3    12  LEU12      -0.1231
      2  CA       -41.5820    2.9690   11.5440 C.3    12  LEU12       0.1693
      3  C        -40.4950    2.1200   12.1890 C.2    12  LEU12       0.2592
      4  O        -40.7980    1.2710   13.0340 O.2    12  LEU12      -0.2718
      5  CB       -42.0690    2.2530   10.2750 C.3    12  LEU12       0.0284
      6  CG       -43.2860    2.8310    9.5590 C.3    12  LEU12       0.0019
      7  CD1      -43.4940    2.1370    8.2230 C.3    12  LEU12       0.0001
      8  CD2      -44.5040    2.6690   10.4360 C.3    12  LEU12       0.0001
      9  N        -39.2420    2.3320   11.7980 N.am   13  GLY13      -0.1957
     10  CA       -38.1080    1.5810   12.2950 C.3    13  GLY13       0.1869
     11  C        -36.8190    2.1170   11.7010 C.2    13  GLY13       0.2309
     12  O        -36.8160    2.6400   10.5780 O.2    13  GLY13      -0.2863
     13  N        -28.9280   -0.0560    9.1920 N.3    17  PHE17      -0.1241
     14  CA       -29.3490   -0.2870    7.8120 C.3    17  PHE17       0.1605
     15  C        -29.8640    0.9930    7.1640 C.2    17  PHE17       0.2264
     16  O        -29.5940    1.2520    5.9840 O.2    17  PHE17      -0.2867
     17  CB       -30.4360   -1.3620    7.7680 C.3    17  PHE17       0.0534
     18  CG       -31.7300   -0.9250    8.3920 C.ar   17  PHE17      -0.0203
     19  CD1      -32.6950   -0.2730    7.6370 C.ar   17  PHE17      -0.0042
     20  CD2      -31.9730   -1.1400    9.7400 C.ar   17  PHE17      -0.0042
     21  CE1      -33.8840    0.1520    8.2180 C.ar   17  PHE17      -0.0003
     22  CE2      -33.1590   -0.7250   10.3250 C.ar   17  PHE17      -0.0003
     23  CZ       -34.1160   -0.0770    9.5640 C.ar   17  PHE17      -0.0000
     24  N        -36.9470    3.9330    7.9670 N.3    20  VAL20      -0.1245
     25  CA       -38.1650    3.6590    7.2160 C.3    20  VAL20       0.1561
     26  C        -39.2850    4.4790    7.8330 C.2    20  VAL20       0.2260
     27  O        -39.5860    4.3290    9.0240 O.2    20  VAL20      -0.2867
     28  CB       -38.5120    2.1630    7.2190 C.3    20  VAL20       0.0252
     29  CG1      -39.7000    1.8930    6.2980 C.3    20  VAL20       0.0019
     30  CG2      -37.2970    1.3450    6.8090 C.3    20  VAL20       0.0019
     31  N        -44.3470    3.3310    2.3510 N.3    33  ALA33      -0.1245
     32  CA       -43.2410    3.4010    3.2880 C.3    33  ALA33       0.1562
     33  C        -42.0520    3.9740    2.5380 C.2    33  ALA33       0.2260
     34  O        -41.8230    3.6380    1.3720 O.2    33  ALA33      -0.2867
     35  CB       -42.9000    2.0180    3.8750 C.3    33  ALA33       0.0290
     36  N        -38.0500    4.4220    2.6190 N.3    35  LYS35      -0.1245
     37  CA       -36.8330    3.8790    3.2130 C.3    35  LYS35       0.1561
     38  C        -35.6280    4.6540    2.6970 C.2    35  LYS35       0.2260
     39  O        -35.4570    4.8090    1.4820 O.2    35  LYS35      -0.2867
     40  CB       -36.6810    2.3860    2.8950 C.3    35  LYS35       0.0271
     41  CG       -35.4000    1.7570    3.4470 C.3    35  LYS35       0.0035
     42  CD       -35.3590    0.2580    3.1890 C.3    35  LYS35       0.0206
     43  CE       -34.1320   -0.3750    3.8390 C.3    35  LYS35       0.1093
     44  NZ       -34.0840   -1.8450    3.6510 N.3    35  LYS35      -0.1314
     45  N        -30.1850   -4.1990   -2.8320 N.3    57  GLU57      -0.1245
     46  CA       -31.5710   -4.2620   -2.3710 C.3    57  GLU57       0.1567
     47  C        -32.5350   -3.7920   -3.4550 C.2    57  GLU57       0.2260
     48  O        -33.6180   -4.3650   -3.6260 O.2    57  GLU57      -0.2867
     49  CB       -31.7370   -3.4250   -1.0970 C.3    57  GLU57       0.0388
     50  CG       -33.1500   -3.4140   -0.5270 C.3    57  GLU57       0.1160
     51  CD       -33.2700   -2.6170    0.7720 C.2    57  GLU57       0.3649
     52  OE1      -32.2760   -1.9990    1.2150 O.co2  57  GLU57      -0.2457
     53  OE2      -34.3720   -2.6080    1.3530 O.co2  57  GLU57      -0.2457
     54  N        -43.7820   -7.2620   -0.1500 N.3    72  ILE72      -0.1245
     55  CA       -44.0140   -5.8260   -0.2600 C.3    72  ILE72       0.1561
     56  C        -43.2600   -5.3150   -1.4780 C.2    72  ILE72       0.2260
     57  O        -42.0460   -5.5250   -1.6090 O.2    72  ILE72      -0.2867
     58  CB       -43.5820   -5.1010    1.0260 C.3    72  ILE72       0.0252
     59  CG1      -44.6090   -5.3170    2.1390 C.3    72  ILE72       0.0019
     60  CG2      -43.4060   -3.6050    0.7640 C.3    72  ILE72       0.0019
     61  CD1      -45.9460   -4.6370    1.8820 C.3    72  ILE72       0.0001
     62  N        -42.0100    2.0640   -0.9280 N.3    88  LEU88      -0.1231
     63  CA       -42.5350    0.7140   -0.8160 C.3    88  LEU88       0.1693
     64  C        -44.0190    0.7440   -0.4700 C.2    88  LEU88       0.2592
     65  O        -44.5240    1.7040    0.1150 O.2    88  LEU88      -0.2718
     66  CB       -41.7640   -0.0730    0.2480 C.3    88  LEU88       0.0284
     67  CG       -40.2610   -0.1760   -0.0160 C.3    88  LEU88       0.0019
     68  CD1      -39.4690   -0.0320    1.2860 C.3    88  LEU88       0.0001
     69  CD2      -39.9530   -1.5030   -0.7050 C.3    88  LEU88       0.0001
     70  N        -44.7160   -0.3310   -0.8350 N.am   89  GLU89      -0.1966
     71  CA       -46.0980   -0.5050   -0.4080 C.3    89  GLU89       0.1733
     72  C        -46.2010   -0.4480    1.1090 C.2    89  GLU89       0.2616
     73  O        -45.2780   -0.8330    1.8340 O.2    89  GLU89      -0.2715
     74  CB       -46.6490   -1.8500   -0.8820 C.3    89  GLU89       0.0429
     75  CG       -46.8820   -1.9950   -2.3710 C.3    89  GLU89       0.1163
     76  CD       -47.4990   -3.3460   -2.6990 C.2    89  GLU89       0.3649
     77  OE1      -46.8970   -4.3840   -2.3320 O.co2  89  GLU89      -0.2457
     78  OE2      -48.5980   -3.3680   -3.2930 O.co2  89  GLU89      -0.2457
     79  N        -47.3520    0.0120    1.5920 N.am   90  ARG90      -0.1977
     80  CA       -47.6830   -0.0690    3.0140 C.3    90  ARG90       0.1597
     81  C        -49.1440   -0.4820    3.1530 C.2    90  ARG90       0.2287
     82  O        -50.0520    0.3340    2.9270 O.2    90  ARG90      -0.2864
     83  CB       -47.4170    1.2480    3.7390 C.3    90  ARG90       0.0334
     84  CG       -47.8650    1.2250    5.2030 C.3    90  ARG90       0.0492
     85  CD       -47.3630    2.4300    5.9670 C.3    90  ARG90       0.2205
     86  NE       -47.8880    3.6770    5.4240 N.pl3  90  ARG90      -0.0865
     87  CZ       -49.0040    4.2600    5.8460 C.cat  90  ARG90       0.5346
     88  NH1      -49.4020    5.3990    5.2970 N.pl3  90  ARG90       0.1354
     89  NH2      -49.7170    3.7090    6.8220 N.pl3  90  ARG90       0.1354
     90  N        -51.9220   -2.6940    9.3380 N.3    94  VAL94      -0.1231
     91  CA       -50.8610   -3.6880    9.2610 C.3    94  VAL94       0.1692
     92  C        -50.1570   -3.7610   10.6080 C.2    94  VAL94       0.2592
     93  O        -50.1500   -2.7990   11.3830 O.2    94  VAL94      -0.2718
     94  CB       -49.8610   -3.3560    8.1320 C.3    94  VAL94       0.0266
     95  CG1      -49.0030   -2.1530    8.5230 C.3    94  VAL94       0.0020
     96  CG2      -49.0150   -4.5580    7.8140 C.3    94  VAL94       0.0020
     97  N        -49.5520   -4.9140   10.8750 N.am   95  GLN95      -0.1966
     98  CA       -48.7300   -5.1220   12.0600 C.3    95  GLN95       0.1733
     99  C        -47.6830   -6.1580   11.6910 C.2    95  GLN95       0.2616
    100  O        -47.9940   -7.1100   10.9710 O.2    95  GLN95      -0.2715
    101  CB       -49.5690   -5.5950   13.2540 C.3    95  GLN95       0.0408
    102  CG       -48.7770   -5.7600   14.5490 C.3    95  GLN95       0.0908
    103  CD       -49.6510   -6.1330   15.7380 C.2    95  GLN95       0.2608
    104  OE1      -49.4850   -5.5970   16.8370 O.2    95  GLN95      -0.2717
    105  NE2      -50.5810   -7.0580   15.5270 N.am   95  GLN95      -0.0878
    106  N        -46.4430   -5.9650   12.1430 N.am   96  ASP96      -0.1971
    107  CA       -45.4840   -7.0000   11.7930 C.3    96  ASP96       0.1709
    108  C        -45.6330   -8.1850   12.7450 C.2    96  ASP96       0.2293
    109  O        -46.2150   -8.0790   13.8310 O.2    96  ASP96      -0.2864
    110  CB       -44.0410   -6.4690   11.7610 C.3    96  ASP96       0.1436
    111  CG       -43.5250   -6.0140   13.1070 C.2    96  ASP96       0.3671
    112  OD1      -43.6490   -6.7520   14.1110 O.co2  96  ASP96      -0.2456
    113  OD2      -42.9310   -4.9170   13.1450 O.co2  96  ASP96      -0.2456
    114  N        -44.4120   -7.9690   16.4520 N.3    99  ASP99      -0.1239
    115  CA       -45.3410   -7.3010   17.3580 C.3    99  ASP99       0.1674
    116  C        -46.5760   -8.1560   17.6140 C.2    99  ASP99       0.2266
    117  O        -47.0820   -8.2090   18.7450 O.2    99  ASP99      -0.2867
    118  CB       -45.7460   -5.9420   16.7910 C.3    99  ASP99       0.1410
    119  CG       -44.6410   -4.9170   16.8940 C.2    99  ASP99       0.3668
    120  OD1      -43.6420   -5.1840   17.6000 O.co2  99  ASP99      -0.2456
    121  OD2      -44.7720   -3.8470   16.2660 O.co2  99  ASP99      -0.2456
    122  N        -39.8640  -10.2100   12.4770 N.3   139  GLU139     -0.1231
    123  CA       -39.7530   -8.7640   12.2690 C.3   139  GLU139      0.1699
    124  C        -39.9350   -8.3780   10.8080 C.2   139  GLU139      0.2592
    125  O        -40.3640   -7.2540   10.5150 O.2   139  GLU139     -0.2718
    126  CB       -38.3960   -8.2400   12.7290 C.3   139  GLU139      0.0402
    127  CG       -38.1040   -8.3340   14.1950 C.3   139  GLU139      0.1161
    128  CD       -36.7460   -7.7510   14.5090 C.2   139  GLU139      0.3649
    129  OE1      -36.6020   -6.5100   14.4170 O.co2 139  GLU139     -0.2457
    130  OE2      -35.8200   -8.5350   14.8110 O.co2 139  GLU139     -0.2457
    131  N        -39.5790   -9.2660    9.8800 N.am  140  ASN140     -0.1974
    132  CA       -39.5900   -8.9620    8.4570 C.3   140  ASN140      0.1688
    133  C        -40.8060   -9.5430    7.7460 C.2   140  ASN140      0.2292
    134  O        -40.7810   -9.7280    6.5270 O.2   140  ASN140     -0.2864
    135  CB       -38.2910   -9.4470    7.8150 C.3   140  ASN140      0.1181
    136  CG       -37.0860   -8.6640    8.3010 C.2   140  ASN140      0.2629
    137  OD1      -37.2110   -7.5050    8.7240 O.2   140  ASN140     -0.2716
    138  ND2      -35.9100   -9.2920    8.2610 N.am  140  ASN140     -0.0877
    139  N        -44.9470   -8.7770    7.4270 N.3   142  LEU142     -0.1245
    140  CA       -46.0720   -7.8970    7.7090 C.3   142  LEU142      0.1561
    141  C        -47.3750   -8.6600    7.5550 C.2   142  LEU142      0.2260
    142  O        -47.5240   -9.4650    6.6290 O.2   142  LEU142     -0.2867
    143  CB       -46.0930   -6.7080    6.7530 C.3   142  LEU142      0.0270
    144  CG       -45.0260   -5.6280    6.8460 C.3   142  LEU142      0.0019
    145  CD1      -45.4260   -4.4770    5.9250 C.3   142  LEU142      0.0001
    146  CD2      -44.8660   -5.1680    8.2860 C.3   142  LEU142      0.0001
    147  N        -40.7290   -8.1900    4.0030 N.3   153  ILE153     -0.1231
    148  CA       -40.0840   -6.8840    3.9390 C.3   153  ILE153      0.1692
    149  C        -38.5890   -7.0360    4.2020 C.2   153  ILE153      0.2592
    150  O        -38.1120   -8.0850    4.6370 O.2   153  ILE153     -0.2718
    151  CB       -40.7050   -5.8550    4.9140 C.3   153  ILE153      0.0266
    152  CG1      -40.6680   -6.3430    6.3730 C.3   153  ILE153      0.0019
    153  CG2      -42.1270   -5.5070    4.4750 C.3   153  ILE153      0.0020
    154  CD1      -41.1340   -5.2780    7.3840 C.3   153  ILE153      0.0001
    155  N        -37.8560   -5.9560    3.8990 N.am  154  ASP154     -0.1974
    156  CA       -36.4180   -5.7890    4.1140 C.3   154  ASP154      0.1709
    157  C        -35.5650   -6.8180    3.3760 C.2   154  ASP154      0.2293
    158  O        -35.1340   -7.8180    3.9640 O.2   154  ASP154     -0.2864
    159  CB       -36.0740   -5.8240    5.6050 C.3   154  ASP154      0.1436
    160  CG       -34.6120   -5.4520    5.8750 C.2   154  ASP154      0.3671
    161  OD1      -33.9230   -4.9980    4.9340 O.co2 154  ASP154     -0.2456
    162  OD2      -34.1420   -5.6220    7.0240 O.co2 154  ASP154     -0.2456
@<TRIPOS>BOND
     1    48    47    2
     2    47    46    1
     3    78    76   ar
     4    45    46    1
     5    76    75    1
     6    76    77   ar
     7    46    49    1
     8    75    74    1
     9    57    56    2
    10    56    55    1
    11    49    50    1
    12    62    63    1
    13    74    71    1
    14    70    64   am
    15    70    71    1
    16    63    64    1
    17    63    66    1
    18    69    67    1
    19    50    51    1
    20    64    65    2
    21    71    72    1
    22    55    54    1
    23    55    58    1
    24    67    66    1
    25    67    68    1
    26    60    58    1
    27    51    52   ar
    28    51    53   ar
    29    58    59    1
    30    72    79   am
    31    72    73    2
    32    34    33    2
    33    39    38    2
    34    79    80    1
    35    61    59    1
    36    31    32    1
    37    33    32    1
    38    36    37    1
    39    38    37    1
    40    40    37    1
    41    40    41    1
    42    82    81    2
    43    80    81    1
    44    80    83    1
    45    42    41    1
    46    42    43    1
    47    32    35    1
    48   157   158    2
    49   157   156    1
    50    44    43    1
    51    83    84    1
    52   155   156    1
    53   155   149   am
    54   148   147    1
    55   148   149    1
    56   148   151    1
    57   156   159    1
    58   149   150    2
    59   153   151    1
    60   151   152    1
    61   161   160   ar
    62    84    85    1
    63    88    87    1
    64    86    87    2
    65    86    85    1
    66   159   160    1
    67    87    89    1
    68   160   162   ar
    69   145   144    1
    70    16    15    2
    71    29    28    1
    72   152   154    1
    73   134   133    2
    74   142   141    2
    75   143   144    1
    76   143   140    1
    77    30    28    1
    78   144   146    1
    79    15    14    1
    80    25    28    1
    81    25    26    1
    82    25    24    1
    83   139   140    1
    84   141   140    1
    85    19    21   ar
    86    19    18   ar
    87   133   132    1
    88    17    14    1
    89    17    18    1
    90    14    13    1
    91    96    94    1
    92   135   136    1
    93   135   132    1
    94    26    27    2
    95    94    95    1
    96    94    91    1
    97    21    23   ar
    98     7     6    1
    99   138   136   am
   100   136   137    2
   101    18    20   ar
   102   132   131    1
   103    91    90    1
   104    91    92    1
   105     6     5    1
   106     6     8    1
   107    23    22   ar
   108    20    22   ar
   109   131   124   am
   110     5     2    1
   111   125   124    2
   112    12    11    2
   113    92    97   am
   114    92    93    2
   115   124   123    1
   116    97    98    1
   117   100    99    2
   118     1     2    1
   119     2     3    1
   120    99    98    1
   121    99   106   am
   122    11    10    1
   123   110   107    1
   124   110   111    1
   125   107   106    1
   126   107   108    1
   127     9     3   am
   128     9    10    1
   129    98   101    1
   130     3     4    2
   131   123   122    1
   132   123   126    1
   133   126   127    1
   134   108   109    2
   135   111   113   ar
   136   111   112   ar
   137   101   102    1
   138   127   128    1
   139   129   128   ar
   140   128   130   ar
   141   102   103    1
   142   105   103   am
   143   103   104    2
   144   121   119   ar
   145   114   115    1
   146   118   119    1
   147   118   115    1
   148   119   120   ar
   149   115   116    1
   150   116   117    2
