@<TRIPOS>MOLECULE
tmp/6nosB00.pdb
 84 80 0 0 0
SMALL
GASTEIGER

@<TRIPOS>ATOM
      1  N         29.9630   86.2390   13.9530 N.3    37  ILE37      -0.1245
      2  CA        28.8200   86.8200   14.6440 C.3    37  ILE37       0.1561
      3  C         27.5730   86.2470   13.9910 C.2    37  ILE37       0.2260
      4  O         27.4100   86.3440   12.7690 O.2    37  ILE37      -0.2867
      5  CB        28.8020   88.3660   14.5670 C.3    37  ILE37       0.0252
      6  CG1       30.1160   88.9770   15.0490 C.3    37  ILE37       0.0019
      7  CG2       27.5720   88.9550   15.2810 C.3    37  ILE37       0.0019
      8  CD1       29.9720   90.4100   15.4140 C.3    37  ILE37       0.0001
      9  N         23.2130   86.1800   14.5580 N.3    39  TYR39      -0.1241
     10  CA        22.2710   87.0340   15.2550 C.3    39  TYR39       0.1605
     11  C         20.8700   86.7950   14.7220 C.2    39  TYR39       0.2264
     12  O         20.5610   87.1630   13.5810 O.2    39  TYR39      -0.2867
     13  CB        22.6880   88.4890   15.1140 C.3    39  TYR39       0.0534
     14  CG        21.5970   89.4220   15.5030 C.ar   39  TYR39      -0.0201
     15  CD1       21.0910   89.4140   16.7710 C.ar   39  TYR39      -0.0009
     16  CD2       21.0330   90.2880   14.5720 C.ar   39  TYR39      -0.0009
     17  CE1       20.0910   90.2590   17.1140 C.ar   39  TYR39       0.0417
     18  CE2       20.0180   91.1390   14.9150 C.ar   39  TYR39       0.0417
     19  CZ        19.5520   91.1130   16.1920 C.ar   39  TYR39       0.1957
     20  OH        18.5200   91.9450   16.5620 O.3    39  TYR39      -0.2866
     21  N         15.0640   90.4210   19.9750 N.3    46  ASN46      -0.1240
     22  CA        16.3150   89.6970   19.8620 C.3    46  ASN46       0.1653
     23  C         16.1060   88.3050   20.4230 C.2    46  ASN46       0.2266
     24  O         15.7250   88.1490   21.5890 O.2    46  ASN46      -0.2867
     25  CB        17.4280   90.4270   20.6120 C.3    46  ASN46       0.1155
     26  CG        18.6780   89.5680   20.7880 C.2    46  ASN46       0.2627
     27  OD1       18.8290   88.8480   21.7760 O.2    46  ASN46      -0.2716
     28  ND2       19.5890   89.6690   19.8510 N.am   46  ASN46      -0.0877
     29  N         22.0260   86.1330   20.4540 N.3    49  GLN49      -0.1245
     30  CA        23.2730   86.6920   19.9550 C.3    49  GLN49       0.1566
     31  C         24.3360   85.6170   20.0750 C.2    49  GLN49       0.2260
     32  O         24.3550   84.8650   21.0520 O.2    49  GLN49      -0.2867
     33  CB        23.7140   87.9760   20.6880 C.3    49  GLN49       0.0367
     34  CG        22.9110   89.2270   20.2630 C.3    49  GLN49       0.0905
     35  CD        23.6810   90.5560   20.3530 C.2    49  GLN49       0.2608
     36  OE1       23.5820   91.2970   21.3410 O.2    49  GLN49      -0.2717
     37  NE2       24.3740   90.9040   19.2610 N.am   49  GLN49      -0.0878
     38  N         20.9470   87.2580   10.6700 N.3    98  MET98      -0.1230
     39  CA        22.0360   88.1670   10.3320 C.3    98  MET98       0.1702
     40  C         23.3770   87.5930   10.7560 C.2    98  MET98       0.2592
     41  O         23.6070   87.3050   11.9340 O.2    98  MET98      -0.2718
     42  CB        21.8460   89.5320   10.9580 C.3    98  MET98       0.0401
     43  CG        20.4490   90.0060   10.8490 C.3    98  MET98       0.0596
     44  SD        20.4040   91.6510   11.5300 S.3    98  MET98      -0.1393
     45  CE        19.1140   92.3350   10.5040 C.3    98  MET98       0.0692
     46  N         24.2810   87.5000    9.7950 N.am   99  ILE99      -0.1966
     47  CA        25.5440   86.8150    9.9920 C.3    99  ILE99       0.1727
     48  C         26.6790   87.7040    9.4950 C.2    99  ILE99       0.2616
     49  O         26.5750   88.3170    8.4220 O.2    99  ILE99      -0.2715
     50  CB        25.5320   85.4600    9.2820 C.3    99  ILE99       0.0290
     51  CG1       24.4880   84.5820    9.9900 C.3    99  ILE99       0.0022
     52  CG2       26.9620   84.8870    9.2650 C.3    99  ILE99       0.0023
     53  CD1       24.1360   83.3060    9.2890 C.3    99  ILE99       0.0001
     54  N         27.7300   87.8250   10.3070 N.am  100  SER100     -0.1950
     55  CA        28.9330   88.5720    9.9540 C.3   100  SER100      0.1924
     56  C         30.1470   87.6880   10.2020 C.2   100  SER100      0.2314
     57  O         30.5110   87.4540   11.3550 O.2   100  SER100     -0.2863
     58  CB        29.0160   89.8610   10.7660 C.3   100  SER100      0.2116
     59  OG        30.1720   90.6120   10.4440 O.3   100  SER100     -0.2180
     60  N         29.1660   90.2240    5.6500 N.3   104  ALA104     -0.1231
     61  CA        27.9410   90.1460    6.4320 C.3   104  ALA104      0.1694
     62  C         26.7390   90.2410    5.5040 C.2   104  ALA104      0.2592
     63  O         26.7160   91.0760    4.5930 O.2   104  ALA104     -0.2718
     64  CB        27.8810   91.2550    7.4950 C.3   104  ALA104      0.0304
     65  N         25.7320   89.4090    5.7630 N.am  105  ASP105     -0.1960
     66  CA        24.4620   89.5420    5.0600 C.3   105  ASP105      0.1840
     67  C         23.3660   89.1180    6.0250 C.2   105  ASP105      0.2622
     68  O         23.6210   88.8170    7.2020 O.2   105  ASP105     -0.2715
     69  CB        24.4380   88.7570    3.7290 C.3   105  ASP105      0.1450
     70  CG        23.2470   89.1590    2.8070 C.2   105  ASP105      0.3671
     71  OD1       22.7780   90.3190    2.8950 O.co2 105  ASP105     -0.2456
     72  OD2       22.8140   88.3390    1.9540 O.co2 105  ASP105     -0.2456
     73  N         22.1310   89.1750    5.5400 N.am  106  TYR106     -0.1974
     74  CA        21.0040   88.6780    6.3020 C.3   106  TYR106      0.1639
     75  C         19.9780   88.1760    5.3110 C.2   106  TYR106      0.2290
     76  O         19.9820   88.5640    4.1420 O.2   106  TYR106     -0.2864
     77  CB        20.3970   89.7620    7.2170 C.3   106  TYR106      0.0560
     78  CG        19.4990   90.7790    6.5280 C.ar  106  TYR106     -0.0198
     79  CD1       18.1520   90.5020    6.2680 C.ar  106  TYR106     -0.0009
     80  CD2       19.9960   92.0130    6.1440 C.ar  106  TYR106     -0.0009
     81  CE1       17.3400   91.4280    5.6470 C.ar  106  TYR106      0.0417
     82  CE2       19.1880   92.9490    5.5190 C.ar  106  TYR106      0.0417
     83  CZ        17.8620   92.6580    5.2710 C.ar  106  TYR106      0.1957
     84  OH        17.0600   93.6020    4.6510 O.3   106  TYR106     -0.2866
@<TRIPOS>BOND
     1    72    70   ar
     2    70    71   ar
     3    70    69    1
     4    69    66    1
     5    76    75    2
     6    63    62    2
     7    84    83    1
     8    66    65    1
     9    66    67    1
    10    83    82   ar
    11    83    81   ar
    12    75    74    1
    13    62    65   am
    14    62    61    1
    15    82    80   ar
    16    73    67   am
    17    73    74    1
    18    81    79   ar
    19    60    61    1
    20    67    68    2
    21    80    78   ar
    22    79    78   ar
    23    74    77    1
    24    61    64    1
    25    78    77    1
    26    49    48    2
    27    52    50    1
    28    50    51    1
    29    50    47    1
    30    53    51    1
    31    48    47    1
    32    48    54   am
    33    46    47    1
    34    46    40   am
    35    55    56    1
    36    55    54    1
    37    55    58    1
    38    56    57    2
    39    39    38    1
    40    39    40    1
    41    39    42    1
    42    59    58    1
    43    45    44    1
    44    40    41    2
    45    43    42    1
    46    43    44    1
    47     4     3    2
    48    12    11    2
    49     1     2    1
    50     3     2    1
    51     9    10    1
    52     5     2    1
    53     5     6    1
    54     5     7    1
    55    16    18   ar
    56    16    14   ar
    57    11    10    1
    58    18    19   ar
    59     6     8    1
    60    13    10    1
    61    13    14    1
    62    14    15   ar
    63    19    20    1
    64    19    17   ar
    65    15    17   ar
    66    37    35   am
    67    28    26   am
    68    22    21    1
    69    22    23    1
    70    22    25    1
    71    30    31    1
    72    30    29    1
    73    30    33    1
    74    31    32    2
    75    34    35    1
    76    34    33    1
    77    35    36    2
    78    23    24    2
    79    25    26    1
    80    26    27    2
