@<TRIPOS>MOLECULE
tmp/6npaD00.pdb
 128 120 0 0 0
SMALL
GASTEIGER

@<TRIPOS>ATOM
      1  N          9.6610   54.2560   30.5810 N.3    24  TYR24      -0.1227
      2  CA         9.6840   55.1060   29.3930 C.3    24  TYR24       0.1736
      3  C          9.2530   56.4860   29.8730 C.2    24  TYR24       0.2595
      4  O          8.1040   56.6760   30.2710 O.2    24  TYR24      -0.2718
      5  CB         8.7620   54.5590   28.2900 C.3    24  TYR24       0.0548
      6  CG         8.8120   55.3080   26.9650 C.ar   24  TYR24      -0.0200
      7  CD1       10.0220   55.7070   26.4030 C.ar   24  TYR24      -0.0009
      8  CD2        7.6420   55.5970   26.2620 C.ar   24  TYR24      -0.0009
      9  CE1       10.0660   56.3850   25.1880 C.ar   24  TYR24       0.0417
     10  CE2        7.6790   56.2780   25.0500 C.ar   24  TYR24       0.0417
     11  CZ         8.8940   56.6680   24.5110 C.ar   24  TYR24       0.1957
     12  OH         8.9410   57.3460   23.2930 O.3    24  TYR24      -0.2866
     13  N         10.1960   57.4270   29.8470 N.am   25  LEU25      -0.1980
     14  CA        10.1080   58.6700   30.6240 C.3    25  LEU25       0.1596
     15  C          8.7290   59.3240   30.5670 C.2    25  LEU25       0.2287
     16  O          8.2660   59.7270   29.4960 O.2    25  LEU25      -0.2864
     17  CB        11.1790   59.6690   30.1620 C.3    25  LEU25       0.0297
     18  CG        11.3050   60.9850   30.9410 C.3    25  LEU25       0.0022
     19  CD1       11.5600   60.7370   32.4230 C.3    25  LEU25       0.0001
     20  CD2       12.4100   61.8430   30.3400 C.3    25  LEU25       0.0001
     21  N          5.7580   58.0470   30.9890 N.3    27  GLU27      -0.1245
     22  CA         4.7250   57.2570   30.3100 C.3    27  GLU27       0.1567
     23  C          4.3600   56.0200   31.1380 C.2    27  GLU27       0.2260
     24  O          5.1560   55.5790   31.9680 O.2    27  GLU27      -0.2867
     25  CB         5.2120   56.8340   28.9110 C.3    27  GLU27       0.0388
     26  CG         5.7790   57.9610   28.0500 C.3    27  GLU27       0.1160
     27  CD         4.7180   58.8800   27.4590 C.2    27  GLU27       0.3649
     28  OE1        3.5480   58.8250   27.8960 O.co2  27  GLU27      -0.2457
     29  OE2        5.0630   59.6630   26.5450 O.co2  27  GLU27      -0.2457
     30  N         13.9840   54.1030   19.9820 N.3    59  ASP59      -0.1239
     31  CA        14.3640   54.8350   21.2040 C.3    59  ASP59       0.1674
     32  C         15.5810   54.2430   21.9210 C.2    59  ASP59       0.2266
     33  O         15.8260   54.5610   23.0780 O.2    59  ASP59      -0.2867
     34  CB        13.1840   54.8800   22.1790 C.3    59  ASP59       0.1410
     35  CG        12.2210   56.0360   21.9080 C.2    59  ASP59       0.3668
     36  OD1       12.6340   57.1100   21.3960 O.co2  59  ASP59      -0.2456
     37  OD2       11.0300   55.8500   22.2200 O.co2  59  ASP59      -0.2456
     38  N         18.1040   56.4810   24.0190 N.3    62  HIS62      -0.1241
     39  CA        17.9490   56.9110   25.4160 C.3    62  HIS62       0.1621
     40  C         18.9870   56.2750   26.3440 C.2    62  HIS62       0.2264
     41  O         19.3790   56.8780   27.3500 O.2    62  HIS62      -0.2867
     42  CB        16.5410   56.6180   25.9350 C.3    62  HIS62       0.0745
     43  CG        15.5050   57.5850   25.4510 C.ar   62  HIS62       0.0817
     44  ND1       15.5880   58.9430   25.6770 N.ar   62  HIS62      -0.2268
     45  CD2       14.3520   57.3880   24.7680 C.ar   62  HIS62       0.1154
     46  CE1       14.5350   59.5400   25.1490 C.ar   62  HIS62       0.1986
     47  NE2       13.7660   58.6170   24.5950 N.ar   62  HIS62      -0.2212
     48  N         18.4410   61.8170   21.6640 N.3    72  HIS72      -0.1241
     49  CA        18.3080   60.3520   21.6070 C.3    72  HIS72       0.1621
     50  C         18.0990   59.7920   20.1920 C.2    72  HIS72       0.2264
     51  O         18.5530   58.6840   19.9000 O.2    72  HIS72      -0.2867
     52  CB        17.2330   59.8410   22.5810 C.3    72  HIS72       0.0745
     53  CG        15.8250   60.0670   22.1250 C.ar   72  HIS72       0.0817
     54  ND1       15.2540   61.3200   22.0430 N.ar   72  HIS72      -0.2268
     55  CD2       14.8570   59.1900   21.7620 C.ar   72  HIS72       0.1154
     56  CE1       14.0020   61.2070   21.6370 C.ar   72  HIS72       0.1986
     57  NE2       13.7370   59.9260   21.4610 N.ar   72  HIS72      -0.2212
     58  N         12.9700   60.3220   13.6920 N.3    95  HIS95      -0.1226
     59  CA        11.6860   60.0860   14.3500 C.3    95  HIS95       0.1752
     60  C         11.2530   61.2530   15.2310 C.2    95  HIS95       0.2595
     61  O         10.0690   61.4000   15.4920 O.2    95  HIS95      -0.2718
     62  CB        11.6560   58.7410   15.1000 C.3    95  HIS95       0.0759
     63  CG        12.1240   58.8060   16.5190 C.ar   95  HIS95       0.0818
     64  ND1       13.4550   58.7280   16.8710 N.ar   95  HIS95      -0.2268
     65  CD2       11.4330   58.9000   17.6760 C.ar   95  HIS95       0.1154
     66  CE1       13.5630   58.7760   18.1850 C.ar   95  HIS95       0.1986
     67  NE2       12.3530   58.8940   18.6970 N.ar   95  HIS95      -0.2212
     68  N         12.2000   62.0890   15.6660 N.am   96  VAL96      -0.1980
     69  CA        11.8560   63.3110   16.3930 C.3    96  VAL96       0.1595
     70  C         11.3860   64.3560   15.3850 C.2    96  VAL96       0.2287
     71  O         10.3750   65.0220   15.6120 O.2    96  VAL96      -0.2864
     72  CB        13.0260   63.8310   17.2520 C.3    96  VAL96       0.0276
     73  CG1       12.7840   65.2660   17.6890 C.3    96  VAL96       0.0022
     74  CG2       13.2210   62.9220   18.4630 C.3    96  VAL96       0.0022
     75  N          7.7840   63.8140   14.4330 N.3    99  LYS99      -0.1245
     76  CA         6.8100   64.4230   15.3380 C.3    99  LYS99       0.1561
     77  C          6.6120   65.9070   15.0050 C.2    99  LYS99       0.2260
     78  O          5.4730   66.4070   14.9470 O.2    99  LYS99      -0.2867
     79  CB         7.2420   64.2440   16.7890 C.3    99  LYS99       0.0271
     80  CG         6.3510   64.9490   17.8010 C.3    99  LYS99       0.0035
     81  CD         6.7050   64.5840   19.2330 C.3    99  LYS99       0.0206
     82  CE         8.0970   65.0410   19.6280 C.3    99  LYS99       0.1093
     83  NZ         8.3330   64.8350   21.0870 N.3    99  LYS99      -0.1314
     84  N          4.1650   63.9350   28.0010 N.3   116  ALA116     -0.1231
     85  CA         5.6280   63.8010   28.0240 C.3   116  ALA116      0.1694
     86  C          6.2820   64.0770   26.6590 C.2   116  ALA116      0.2592
     87  O          7.3500   64.6920   26.5900 O.2   116  ALA116     -0.2718
     88  CB         6.0260   62.4240   28.5330 C.3   116  ALA116      0.0304
     89  N          5.6500   63.6240   25.5790 N.am  117  SER117     -0.1952
     90  CA         6.1530   63.9100   24.2270 C.3   117  SER117      0.1924
     91  C          5.8740   65.3610   23.8170 C.2   117  SER117      0.2314
     92  O          6.6100   65.9320   23.0190 O.2   117  SER117     -0.2863
     93  CB         5.5790   62.9270   23.1960 C.3   117  SER117      0.2116
     94  OG         6.3060   61.7020   23.1940 O.3   117  SER117     -0.2180
     95  N          8.8490   67.1800   25.4630 N.3   120  SER120     -0.1217
     96  CA        10.0870   67.0520   24.6810 C.3   120  SER120      0.1889
     97  C         10.0030   67.8200   23.3530 C.2   120  SER120      0.2288
     98  O         11.0080   68.3520   22.8800 O.2   120  SER120     -0.2866
     99  CB        10.4700   65.5780   24.4550 C.3   120  SER120      0.2089
    100  OG         9.5160   64.8810   23.6700 O.3   120  SER120     -0.2183
    101  N         12.7420   70.2660   21.5550 N.3   124  GLN124     -0.1245
    102  CA        13.1900   69.8280   20.2340 C.3   124  GLN124      0.1566
    103  C         12.8890   70.8400   19.1160 C.2   124  GLN124      0.2260
    104  O         13.2810   70.6250   17.9690 O.2   124  GLN124     -0.2867
    105  CB        12.5840   68.4500   19.9120 C.3   124  GLN124      0.0367
    106  CG        13.1600   67.3390   20.7910 C.3   124  GLN124      0.0905
    107  CD        12.2610   66.1180   20.9330 C.2   124  GLN124      0.2608
    108  OE1       12.7260   65.0240   21.2810 O.2   124  GLN124     -0.2717
    109  NE2       10.9750   66.2930   20.6640 N.am  124  GLN124     -0.0878
    110  N          6.7460   56.7590   13.3400 N.3   149  ARG149     -0.1245
    111  CA         6.2630   57.7100   14.3470 C.3   149  ARG149      0.1563
    112  C          4.8270   57.3790   14.7950 C.2   149  ARG149      0.2260
    113  O          4.5130   57.4950   15.9750 O.2   149  ARG149     -0.2867
    114  CB         6.3880   59.1660   13.8840 C.3   149  ARG149      0.0307
    115  CG         6.1030   60.1870   14.9970 C.3   149  ARG149      0.0489
    116  CD         7.2260   60.2780   16.0340 C.3   149  ARG149      0.2205
    117  NE         6.7340   60.5120   17.3960 N.pl3 149  ARG149     -0.0865
    118  CZ         7.4730   60.9250   18.4320 C.cat 149  ARG149      0.5346
    119  NH1        8.7730   61.1900   18.3030 N.pl3 149  ARG149      0.1354
    120  NH2        6.9020   61.0610   19.6240 N.pl3 149  ARG149      0.1354
    121  N          5.1980   54.6870   17.2750 N.3   152  ASP152     -0.1239
    122  CA         5.7260   55.3410   18.4740 C.3   152  ASP152      0.1674
    123  C          4.5610   55.8650   19.3270 C.2   152  ASP152      0.2266
    124  O          4.4280   55.5220   20.5030 O.2   152  ASP152     -0.2867
    125  CB         6.6510   56.4720   18.0120 C.3   152  ASP152      0.1410
    126  CG         7.3650   57.1920   19.1390 C.2   152  ASP152      0.3668
    127  OD1        7.2800   56.8070   20.3230 O.co2 152  ASP152     -0.2456
    128  OD2        8.0650   58.1680   18.8000 O.co2 152  ASP152     -0.2456
@<TRIPOS>BOND
     1   110   111    1
     2    58    59    1
     3   114   111    1
     4   114   115    1
     5   111   112    1
     6    59    62    1
     7    59    60    1
     8    75    76    1
     9   112   113    2
    10    78    77    2
    11   115   116    1
    12    77    76    1
    13    62    63    1
    14    60    61    2
    15    60    68   am
    16    76    79    1
    17    70    71    2
    18    70    69    1
    19    68    69    1
    20   116   117    1
    21    69    72    1
    22    63    64   ar
    23    63    65   ar
    24    79    80    1
    25    64    66   ar
    26    72    73    1
    27    72    74    1
    28   121   122    1
    29   117   118    2
    30    65    67   ar
    31    80    81    1
    32   104   103    2
    33   125   122    1
    34   125   126    1
    35    66    67   ar
    36   119   118    1
    37   118   120    1
    38   122   123    1
    39   128   126   ar
    40   103   102    1
    41   126   127   ar
    42    81    82    1
    43   123   124    2
    44    82    83    1
    45    51    50    2
    46   105   102    1
    47   105   106    1
    48    30    31    1
    49    50    49    1
    50   102   101    1
    51   109   107   am
    52   106   107    1
    53   107   108    2
    54    31    32    1
    55    31    34    1
    56    36    35   ar
    57    57    56   ar
    58    57    55   ar
    59    49    48    1
    60    49    52    1
    61    56    54   ar
    62    55    53   ar
    63    35    34    1
    64    35    37   ar
    65    32    33    2
    66    54    53   ar
    67    53    52    1
    68    98    97    2
    69    92    91    2
    70    94    93    1
    71    93    90    1
    72    12    11    1
    73    97    96    1
    74   100    99    1
    75    91    90    1
    76    38    39    1
    77    90    89    1
    78    99    96    1
    79    11    10   ar
    80    11     9   ar
    81    47    45   ar
    82    47    46   ar
    83    96    95    1
    84    45    43   ar
    85    10     8   ar
    86    46    44   ar
    87     9     7   ar
    88    39    42    1
    89    39    40    1
    90    43    44   ar
    91    43    42    1
    92    89    86   am
    93     8     6   ar
    94    40    41    2
    95     7     6   ar
    96    29    27   ar
    97    87    86    2
    98    86    85    1
    99     6     5    1
   100    27    28   ar
   101    27    26    1
   102    84    85    1
   103    85    88    1
   104    26    25    1
   105     5     2    1
   106    25    22    1
   107     2     3    1
   108     2     1    1
   109    16    15    2
   110    13     3   am
   111    13    14    1
   112     3     4    2
   113    17    14    1
   114    17    18    1
   115    22    21    1
   116    22    23    1
   117    20    18    1
   118    15    14    1
   119    18    19    1
   120    23    24    2
