@<TRIPOS>MOLECULE
tmp/6npcA00.pdb
 128 119 0 0 0
SMALL
GASTEIGER

@<TRIPOS>ATOM
      1  N        -22.0110   14.5130   -8.0740 N.3   179  PHE179     -0.1241
      2  CA       -23.1620   14.3390   -8.9510 C.3   179  PHE179      0.1605
      3  C        -23.0630   13.0560   -9.7650 C.2   179  PHE179      0.2264
      4  O        -21.9690   12.5520  -10.0360 O.2   179  PHE179     -0.2867
      5  CB       -23.3720   15.5630   -9.8620 C.3   179  PHE179      0.0534
      6  CG       -22.1070   16.1120  -10.4710 C.ar  179  PHE179     -0.0203
      7  CD1      -21.6260   15.6160  -11.6810 C.ar  179  PHE179     -0.0042
      8  CD2      -21.4020   17.1360   -9.8410 C.ar  179  PHE179     -0.0042
      9  CE1      -20.4680   16.1260  -12.2480 C.ar  179  PHE179     -0.0003
     10  CE2      -20.2400   17.6470  -10.4050 C.ar  179  PHE179     -0.0003
     11  CZ       -19.7690   17.1370  -11.6050 C.ar  179  PHE179     -0.0000
     12  N        -23.3680   11.2040  -13.1010 N.3   181  VAL181     -0.1245
     13  CA       -23.3080   11.4040  -14.5500 C.3   181  VAL181      0.1561
     14  C        -23.8950   10.1710  -15.2410 C.2   181  VAL181      0.2260
     15  O        -23.2040    9.1800  -15.4950 O.2   181  VAL181     -0.2867
     16  CB       -21.8700   11.6770  -15.0270 C.3   181  VAL181      0.0252
     17  CG1      -21.8350   11.9500  -16.5280 C.3   181  VAL181      0.0019
     18  CG2      -21.2780   12.8510  -14.2620 C.3   181  VAL181      0.0019
     19  N        -25.2910   17.0620  -19.6600 N.3   191  ALA191     -0.1245
     20  CA       -24.4240   16.0330  -19.0750 C.3   191  ALA191      0.1562
     21  C        -25.2090   14.7870  -18.6470 C.2   191  ALA191      0.2260
     22  O        -24.6920   13.6720  -18.7230 O.2   191  ALA191     -0.2867
     23  CB       -23.6640   16.5910  -17.8850 C.3   191  ALA191      0.0290
     24  N        -21.0760   15.4820  -25.8910 N.3   197  LEU197     -0.1245
     25  CA       -20.8050   16.8300  -25.4120 C.3   197  LEU197      0.1561
     26  C        -19.5470   17.3340  -26.0830 C.2   197  LEU197      0.2260
     27  O        -18.5390   16.6310  -26.0960 O.2   197  LEU197     -0.2867
     28  CB       -20.5800   16.8290  -23.9000 C.3   197  LEU197      0.0270
     29  CG       -21.7170   16.3340  -23.0090 C.3   197  LEU197      0.0019
     30  CD1      -21.2970   16.4270  -21.5490 C.3   197  LEU197      0.0001
     31  CD2      -22.9900   17.1210  -23.2590 C.3   197  LEU197      0.0001
     32  N        -15.3920   21.0900  -23.2300 N.3   200  HIS200     -0.1241
     33  CA       -15.7580   22.2550  -22.4570 C.3   200  HIS200      0.1621
     34  C        -15.0610   22.2640  -21.1180 C.2   200  HIS200      0.2264
     35  O        -14.5670   21.2410  -20.6630 O.2   200  HIS200     -0.2867
     36  CB       -17.2610   22.2460  -22.2040 C.3   200  HIS200      0.0745
     37  CG       -17.7220   21.0350  -21.4600 C.ar  200  HIS200      0.0817
     38  ND1      -17.8950   19.8100  -22.0700 N.ar  200  HIS200     -0.2268
     39  CD2      -18.0140   20.8510  -20.1520 C.ar  200  HIS200      0.1154
     40  CE1      -18.2860   18.9260  -21.1710 C.ar  200  HIS200      0.1986
     41  NE2      -18.3660   19.5330  -20.0010 N.ar  200  HIS200     -0.2212
     42  N        -16.1750   23.0390  -17.1800 N.3   202  ASP202     -0.1239
     43  CA       -17.4160   23.0510  -16.4090 C.3   202  ASP202      0.1674
     44  C        -17.6700   24.3870  -15.7310 C.2   202  ASP202      0.2266
     45  O        -16.7450   25.0490  -15.2500 O.2   202  ASP202     -0.2867
     46  CB       -17.4270   21.9570  -15.3300 C.3   202  ASP202      0.1410
     47  CG       -18.1540   20.6930  -15.7660 C.2   202  ASP202      0.3668
     48  OD1      -18.0850   20.3150  -16.9600 O.co2 202  ASP202     -0.2456
     49  OD2      -18.7900   20.0570  -14.8940 O.co2 202  ASP202     -0.2456
     50  N        -11.8340   19.2860  -11.5620 N.3   213  GLN213     -0.1245
     51  CA       -12.9460   18.3420  -11.6510 C.3   213  GLN213      0.1566
     52  C        -12.4350   16.9100  -11.6860 C.2   213  GLN213      0.2260
     53  O        -11.4330   16.6200  -12.3380 O.2   213  GLN213     -0.2867
     54  CB       -13.8070   18.6160  -12.8790 C.3   213  GLN213      0.0367
     55  CG       -15.0350   17.7060  -12.9830 C.3   213  GLN213      0.0905
     56  CD       -16.0360   18.1310  -14.0440 C.2   213  GLN213      0.2608
     57  OE1      -17.0180   17.4250  -14.3210 O.2   213  GLN213     -0.2717
     58  NE2      -15.8070   19.2760  -14.6360 N.am  213  GLN213     -0.0878
     59  N        -13.7710   13.0270  -12.6050 N.3   215  LEU215     -0.1245
     60  CA       -14.7800   12.1830  -13.2390 C.3   215  LEU215      0.1561
     61  C        -14.3590   10.7310  -13.0470 C.2   215  LEU215      0.2260
     62  O        -13.2310   10.3750  -13.3660 O.2   215  LEU215     -0.2867
     63  CB       -14.9210   12.5390  -14.7150 C.3   215  LEU215      0.0270
     64  CG       -15.7780   13.7820  -14.9460 C.3   215  LEU215      0.0019
     65  CD1      -15.5710   14.3120  -16.3600 C.3   215  LEU215      0.0001
     66  CD2      -17.2530   13.5000  -14.6670 C.3   215  LEU215      0.0001
     67  N        -14.1570    9.2040  -23.3810 N.3   227  SER227     -0.1217
     68  CA       -13.7640   10.4960  -22.8330 C.3   227  SER227      0.1889
     69  C        -12.7100   11.1130  -23.7340 C.2   227  SER227      0.2288
     70  O        -11.8910   10.3960  -24.3040 O.2   227  SER227     -0.2866
     71  CB       -13.1980   10.3310  -21.4260 C.3   227  SER227      0.2089
     72  OG       -14.1860    9.8310  -20.5450 O.3   227  SER227     -0.2183
     73  N        -10.3300   10.3510  -13.9430 N.3   334  PHE334     -0.1241
     74  CA        -9.3490   11.3660  -14.2700 C.3   334  PHE334      0.1605
     75  C         -9.6850   12.6900  -13.6110 C.2   334  PHE334      0.2264
     76  O        -10.8280   12.9280  -13.2050 O.2   334  PHE334     -0.2867
     77  CB        -9.1600   11.5100  -15.7900 C.3   334  PHE334      0.0534
     78  CG       -10.3540   12.0600  -16.5300 C.ar  334  PHE334     -0.0203
     79  CD1      -11.3390   11.2120  -17.0140 C.ar  334  PHE334     -0.0042
     80  CD2      -10.4660   13.4250  -16.7850 C.ar  334  PHE334     -0.0042
     81  CE1      -12.4270   11.7130  -17.7230 C.ar  334  PHE334     -0.0003
     82  CE2      -11.5540   13.9350  -17.4830 C.ar  334  PHE334     -0.0003
     83  CZ       -12.5350   13.0740  -17.9560 C.ar  334  PHE334     -0.0000
     84  N        -12.8450   18.9030  -21.2150 N.3   343  HIS343     -0.1226
     85  CA       -13.1970   17.5000  -21.3420 C.3   343  HIS343      0.1752
     86  C        -14.4880   17.3670  -22.1320 C.2   343  HIS343      0.2596
     87  O        -15.2980   18.2980  -22.1970 O.2   343  HIS343     -0.2718
     88  CB       -13.3250   16.8320  -19.9740 C.3   343  HIS343      0.0759
     89  CG       -14.3990   17.4170  -19.1270 C.ar  343  HIS343      0.0818
     90  ND1      -14.2720   18.6420  -18.5130 N.ar  343  HIS343     -0.2268
     91  CD2      -15.6290   16.9590  -18.8080 C.ar  343  HIS343      0.1154
     92  CE1      -15.3830   18.9200  -17.8630 C.ar  343  HIS343      0.1986
     93  NE2      -16.2200   17.9120  -18.0210 N.ar  343  HIS343     -0.2212
     94  N        -14.6580   16.1880  -22.7110 N.am  344  ALA344     -0.1966
     95  CA       -15.7620   15.8880  -23.6130 C.3   344  ALA344      0.1728
     96  C        -16.1400   14.4260  -23.4590 C.2   344  ALA344      0.2616
     97  O        -15.4150   13.6440  -22.8390 O.2   344  ALA344     -0.2715
     98  CB       -15.3420   16.1600  -25.0480 C.3   344  ALA344      0.0334
     99  N        -17.2680   14.0550  -24.0430 N.am  345  ARG345     -0.1977
    100  CA       -17.5820   12.6470  -24.2210 C.3   345  ARG345      0.1597
    101  C        -18.3460   12.4200  -25.5100 C.2   345  ARG345      0.2287
    102  O        -19.0810   13.2900  -25.9670 O.2   345  ARG345     -0.2864
    103  CB       -18.3620   12.0830  -23.0310 C.3   345  ARG345      0.0334
    104  CG       -19.7120   12.7420  -22.7780 C.3   345  ARG345      0.0492
    105  CD       -20.8290   11.7310  -22.5870 C.3   345  ARG345      0.2205
    106  NE       -22.1300   12.3840  -22.7090 N.pl3 345  ARG345     -0.0865
    107  CZ       -22.8360   12.9290  -21.7150 C.cat 345  ARG345      0.5346
    108  NH1      -22.4040   12.9170  -20.4520 N.pl3 345  ARG345      0.1354
    109  NH2      -24.0050   13.5060  -21.9980 N.pl3 345  ARG345      0.1354
    110  N        -24.2780    3.2460  -18.6000 N.3   354  ARG354     -0.1245
    111  CA       -23.1680    4.1290  -18.2890 C.3   354  ARG354      0.1563
    112  C        -23.4580    4.8690  -17.0000 C.2   354  ARG354      0.2260
    113  O        -24.5630    5.3740  -16.7950 O.2   354  ARG354     -0.2867
    114  CB       -22.9410    5.1210  -19.4220 C.3   354  ARG354      0.0307
    115  CG       -21.6000    5.8320  -19.3450 C.3   354  ARG354      0.0489
    116  CD       -21.3440    6.5870  -20.6320 C.3   354  ARG354      0.2205
    117  NE       -20.0370    7.2380  -20.6750 N.pl3 354  ARG354     -0.0865
    118  CZ       -19.7530    8.4560  -20.2110 C.cat 354  ARG354      0.5346
    119  NH1      -20.6790    9.2140  -19.6160 N.pl3 354  ARG354      0.1354
    120  NH2      -18.5130    8.9220  -20.3440 N.pl3 354  ARG354      0.1354
    121  N        -21.0450    7.4170  -14.5500 N.3   356  LEU356     -0.1245
    122  CA       -19.8880    8.1110  -14.0110 C.3   356  LEU356      0.1561
    123  C        -20.3470    8.9470  -12.8260 C.2   356  LEU356      0.2260
    124  O        -21.5390    9.2200  -12.6720 O.2   356  LEU356     -0.2867
    125  CB       -19.2260    8.9930  -15.0780 C.3   356  LEU356      0.0270
    126  CG       -18.1580    8.3360  -15.9510 C.3   356  LEU356      0.0019
    127  CD1      -18.7190    7.1810  -16.7610 C.3   356  LEU356      0.0001
    128  CD2      -17.5460    9.3870  -16.8680 C.3   356  LEU356      0.0001
@<TRIPOS>BOND
     1    27    26    2
     2    26    25    1
     3   102   101    2
     4    24    25    1
     5   101   100    1
     6    25    28    1
     7    98    95    1
     8    70    69    2
     9   100    99    1
    10   100   103    1
    11    99    96   am
    12    28    29    1
    13    69    68    1
    14    95    96    1
    15    95    94    1
    16    96    97    2
    17    67    68    1
    18    31    29    1
    19    32    33    1
    20   103   104    1
    21    29    30    1
    22    68    71    1
    23   104   105    1
    24    94    86   am
    25   106   105    1
    26   106   107    2
    27    33    36    1
    28    33    34    1
    29    36    37    1
    30    87    86    2
    31    86    85    1
    32    38    37   ar
    33    38    40   ar
    34   109   107    1
    35   107   108    1
    36    37    39   ar
    37    71    72    1
    38    85    84    1
    39    85    88    1
    40    40    41   ar
    41    34    35    2
    42   117   116    1
    43   117   118    2
    44   116   115    1
    45   120   118    1
    46   118   119    1
    47    39    41   ar
    48    88    89    1
    49    19    20    1
    50   114   115    1
    51   114   111    1
    52    89    91   ar
    53    89    90   ar
    54    20    21    1
    55    20    23    1
    56    91    93   ar
    57    22    21    2
    58   110   111    1
    59    90    92   ar
    60   111   112    1
    61    93    92   ar
    62    83    81   ar
    63    83    82   ar
    64    81    79   ar
    65    82    80   ar
    66    42    43    1
    67    79    78   ar
    68   112   113    2
    69    48    47   ar
    70   128   126    1
    71    80    78   ar
    72   127   126    1
    73    78    77    1
    74    17    16    1
    75    43    44    1
    76    43    46    1
    77    65    64    1
    78   126   125    1
    79    77    74    1
    80    47    46    1
    81    47    49   ar
    82    44    45    2
    83    15    14    2
    84    14    13    1
    85   125   122    1
    86    16    13    1
    87    16    18    1
    88    64    63    1
    89    64    66    1
    90    63    60    1
    91    58    56   am
    92    13    12    1
    93   121   122    1
    94    57    56    2
    95    74    73    1
    96    74    75    1
    97    56    55    1
    98   122   123    1
    99    75    76    2
   100    62    61    2
   101    60    61    1
   102    60    59    1
   103    55    54    1
   104    54    51    1
   105   123   124    2
   106    53    52    2
   107     9     7   ar
   108     9    11   ar
   109    52    51    1
   110     7     6   ar
   111    51    50    1
   112    11    10   ar
   113     6     5    1
   114     6     8   ar
   115    10     8   ar
   116     4     3    2
   117     5     2    1
   118     3     2    1
   119     2     1    1
