@<TRIPOS>MOLECULE
tmp/6npcA01.pdb
 151 145 0 0 0
SMALL
GASTEIGER

@<TRIPOS>ATOM
      1  N        -25.1510   21.3590   -7.5550 N.3   175  TYR175     -0.1241
      2  CA       -25.1680   20.0240   -8.1510 C.3   175  TYR175      0.1605
      3  C        -24.9370   18.8830   -7.1610 C.2   175  TYR175      0.2264
      4  O        -25.1250   17.7250   -7.5260 O.2   175  TYR175     -0.2867
      5  CB       -24.1240   19.9370   -9.2600 C.3   175  TYR175      0.0534
      6  CG       -24.4530   20.7450  -10.4940 C.ar  175  TYR175     -0.0201
      7  CD1      -25.5490   20.4160  -11.2870 C.ar  175  TYR175     -0.0009
      8  CD2      -23.6430   21.8140  -10.9010 C.ar  175  TYR175     -0.0009
      9  CE1      -25.8490   21.1310  -12.4380 C.ar  175  TYR175      0.0417
     10  CE2      -23.9310   22.5290  -12.0560 C.ar  175  TYR175      0.0417
     11  CZ       -25.0270   22.1790  -12.8270 C.ar  175  TYR175      0.1957
     12  OH       -25.3200   22.8700  -13.9820 O.3   175  TYR175     -0.2866
     13  N        -22.0110   14.5130   -8.0740 N.3   179  PHE179     -0.1241
     14  CA       -23.1620   14.3390   -8.9510 C.3   179  PHE179      0.1605
     15  C        -23.0630   13.0560   -9.7650 C.2   179  PHE179      0.2264
     16  O        -21.9690   12.5520  -10.0360 O.2   179  PHE179     -0.2867
     17  CB       -23.3720   15.5630   -9.8620 C.3   179  PHE179      0.0534
     18  CG       -22.1070   16.1120  -10.4710 C.ar  179  PHE179     -0.0203
     19  CD1      -21.6260   15.6160  -11.6810 C.ar  179  PHE179     -0.0042
     20  CD2      -21.4020   17.1360   -9.8410 C.ar  179  PHE179     -0.0042
     21  CE1      -20.4680   16.1260  -12.2480 C.ar  179  PHE179     -0.0003
     22  CE2      -20.2400   17.6470  -10.4050 C.ar  179  PHE179     -0.0003
     23  CZ       -19.7690   17.1370  -11.6050 C.ar  179  PHE179     -0.0000
     24  N        -23.3680   11.2040  -13.1010 N.3   181  VAL181     -0.1245
     25  CA       -23.3080   11.4040  -14.5500 C.3   181  VAL181      0.1561
     26  C        -23.8950   10.1710  -15.2410 C.2   181  VAL181      0.2260
     27  O        -23.2040    9.1800  -15.4950 O.2   181  VAL181     -0.2867
     28  CB       -21.8700   11.6770  -15.0270 C.3   181  VAL181      0.0252
     29  CG1      -21.8350   11.9500  -16.5280 C.3   181  VAL181      0.0019
     30  CG2      -21.2780   12.8510  -14.2620 C.3   181  VAL181      0.0019
     31  N        -29.4100   19.1840  -17.0400 N.3   189  ASN189     -0.1240
     32  CA       -28.1950   19.5200  -17.7600 C.3   189  ASN189      0.1653
     33  C        -27.9730   18.4230  -18.7990 C.2   189  ASN189      0.2266
     34  O        -28.2710   17.2580  -18.5440 O.2   189  ASN189     -0.2867
     35  CB       -27.0300   19.5690  -16.7620 C.3   189  ASN189      0.1155
     36  CG       -25.7690   20.1970  -17.3430 C.2   189  ASN189      0.2627
     37  OD1      -25.0600   19.5740  -18.1340 O.2   189  ASN189     -0.2716
     38  ND2      -25.4460   21.4080  -16.8940 N.am  189  ASN189     -0.0877
     39  N        -25.2910   17.0620  -19.6600 N.3   191  ALA191     -0.1231
     40  CA       -24.4240   16.0330  -19.0750 C.3   191  ALA191      0.1694
     41  C        -25.2090   14.7870  -18.6470 C.2   191  ALA191      0.2592
     42  O        -24.6920   13.6720  -18.7230 O.2   191  ALA191     -0.2718
     43  CB       -23.6640   16.5910  -17.8850 C.3   191  ALA191      0.0304
     44  N        -26.4540   14.9890  -18.2140 N.am  192  TYR192     -0.1976
     45  CA       -27.3120   13.9010  -17.7370 C.3   192  TYR192      0.1639
     46  C        -28.2120   13.3250  -18.8460 C.2   192  TYR192      0.2290
     47  O        -29.4120   13.1070  -18.6430 O.2   192  TYR192     -0.2864
     48  CB       -28.1400   14.3870  -16.5410 C.3   192  TYR192      0.0560
     49  CG       -27.3320   15.0470  -15.4280 C.ar  192  TYR192     -0.0198
     50  CD1      -26.0840   14.5500  -15.0410 C.ar  192  TYR192     -0.0009
     51  CD2      -27.8300   16.1560  -14.7400 C.ar  192  TYR192     -0.0009
     52  CE1      -25.3520   15.1490  -14.0270 C.ar  192  TYR192      0.0417
     53  CE2      -27.1080   16.7510  -13.7130 C.ar  192  TYR192      0.0417
     54  CZ       -25.8720   16.2420  -13.3580 C.ar  192  TYR192      0.1957
     55  OH       -25.1490   16.8280  -12.3480 O.3   192  TYR192     -0.2866
     56  N        -15.3920   21.0900  -23.2300 N.3   200  HIS200     -0.1241
     57  CA       -15.7580   22.2550  -22.4570 C.3   200  HIS200      0.1621
     58  C        -15.0610   22.2640  -21.1180 C.2   200  HIS200      0.2264
     59  O        -14.5670   21.2410  -20.6630 O.2   200  HIS200     -0.2867
     60  CB       -17.2610   22.2460  -22.2040 C.3   200  HIS200      0.0745
     61  CG       -17.7220   21.0350  -21.4600 C.ar  200  HIS200      0.0817
     62  ND1      -17.8950   19.8100  -22.0700 N.ar  200  HIS200     -0.2268
     63  CD2      -18.0140   20.8510  -20.1520 C.ar  200  HIS200      0.1154
     64  CE1      -18.2860   18.9260  -21.1710 C.ar  200  HIS200      0.1986
     65  NE2      -18.3660   19.5330  -20.0010 N.ar  200  HIS200     -0.2212
     66  N        -16.1750   23.0390  -17.1800 N.3   202  ASP202     -0.1225
     67  CA       -17.4160   23.0510  -16.4090 C.3   202  ASP202      0.1805
     68  C        -17.6700   24.3870  -15.7310 C.2   202  ASP202      0.2597
     69  O        -16.7450   25.0490  -15.2500 O.2   202  ASP202     -0.2718
     70  CB       -17.4270   21.9570  -15.3300 C.3   202  ASP202      0.1424
     71  CG       -18.1540   20.6930  -15.7660 C.2   202  ASP202      0.3668
     72  OD1      -18.0850   20.3150  -16.9600 O.co2 202  ASP202     -0.2456
     73  OD2      -18.7900   20.0570  -14.8940 O.co2 202  ASP202     -0.2456
     74  N        -18.9460   24.7530  -15.6750 N.am  203  ASN203     -0.1974
     75  CA       -19.4270   25.8620  -14.8630 C.3   203  ASN203      0.1688
     76  C        -18.7510   27.2230  -15.1600 C.2   203  ASN203      0.2292
     77  O        -18.3830   27.9320  -14.2210 O.2   203  ASN203     -0.2864
     78  CB       -19.2350   25.5910  -13.3440 C.3   203  ASN203      0.1181
     79  CG       -19.9580   24.3530  -12.7870 C.2   203  ASN203      0.2629
     80  OD1      -20.0260   24.2370  -11.5700 O.2   203  ASN203     -0.2716
     81  ND2      -20.4420   23.4390  -13.6140 N.am  203  ASN203     -0.0877
     82  N        -20.3220   29.6800  -15.9520 N.3   205  TYR205     -0.1241
     83  CA       -21.3460   30.4980  -15.2890 C.3   205  TYR205      0.1605
     84  C        -21.1700   30.6890  -13.7760 C.2   205  TYR205      0.2264
     85  O        -21.9120   31.4660  -13.1680 O.2   205  TYR205     -0.2867
     86  CB       -22.7380   29.8980  -15.5510 C.3   205  TYR205      0.0534
     87  CG       -22.8410   28.3900  -15.3860 C.ar  205  TYR205     -0.0201
     88  CD1      -23.0250   27.8100  -14.1340 C.ar  205  TYR205     -0.0009
     89  CD2      -22.7680   27.5430  -16.4940 C.ar  205  TYR205     -0.0009
     90  CE1      -23.1380   26.4300  -13.9950 C.ar  205  TYR205      0.0417
     91  CE2      -22.8640   26.1630  -16.3650 C.ar  205  TYR205      0.0417
     92  CZ       -23.0670   25.6120  -15.1110 C.ar  205  TYR205      0.1957
     93  OH       -23.1750   24.2490  -14.9590 O.3   205  TYR205     -0.2866
     94  N        -11.8340   19.2860  -11.5620 N.3   213  GLN213     -0.1245
     95  CA       -12.9460   18.3420  -11.6510 C.3   213  GLN213      0.1566
     96  C        -12.4350   16.9100  -11.6860 C.2   213  GLN213      0.2260
     97  O        -11.4330   16.6200  -12.3380 O.2   213  GLN213     -0.2867
     98  CB       -13.8070   18.6160  -12.8790 C.3   213  GLN213      0.0367
     99  CG       -15.0350   17.7060  -12.9830 C.3   213  GLN213      0.0905
    100  CD       -16.0360   18.1310  -14.0440 C.2   213  GLN213      0.2608
    101  OE1      -17.0180   17.4250  -14.3210 O.2   213  GLN213     -0.2717
    102  NE2      -15.8070   19.2760  -14.6360 N.am  213  GLN213     -0.0878
    103  N        -26.5450   29.5720  -16.2840 N.3   259  TYR259     -0.1241
    104  CA       -27.2020   28.2880  -16.0590 C.3   259  TYR259      0.1605
    105  C        -28.4640   28.5060  -15.2290 C.2   259  TYR259      0.2264
    106  O        -28.4040   29.0870  -14.1490 O.2   259  TYR259     -0.2867
    107  CB       -26.2690   27.3020  -15.3450 C.3   259  TYR259      0.0534
    108  CG       -26.9670   26.0140  -14.9810 C.ar  259  TYR259     -0.0201
    109  CD1      -27.2820   25.0750  -15.9630 C.ar  259  TYR259     -0.0009
    110  CD2      -27.3370   25.7430  -13.6660 C.ar  259  TYR259     -0.0009
    111  CE1      -27.9380   23.8980  -15.6430 C.ar  259  TYR259      0.0417
    112  CE2      -27.9920   24.5640  -13.3340 C.ar  259  TYR259      0.0417
    113  CZ       -28.2850   23.6440  -14.3240 C.ar  259  TYR259      0.1957
    114  OH       -28.9430   22.4790  -14.0060 O.3   259  TYR259     -0.2866
    115  N        -17.8490   26.6920  -23.2020 N.3   288  ASN288     -0.1240
    116  CA       -18.9710   25.7910  -22.9360 C.3   288  ASN288      0.1653
    117  C        -20.1550   26.2320  -23.7860 C.2   288  ASN288      0.2266
    118  O        -20.8150   27.2090  -23.4630 O.2   288  ASN288     -0.2867
    119  CB       -19.3200   25.8130  -21.4370 C.3   288  ASN288      0.1155
    120  CG       -20.2110   24.6570  -21.0140 C.2   288  ASN288      0.2627
    121  OD1      -21.2330   24.3760  -21.6440 O.2   288  ASN288     -0.2716
    122  ND2      -19.8360   23.9940  -19.9230 N.am  288  ASN288     -0.0877
    123  N        -23.0470   24.9960  -24.2150 N.3   290  ARG290     -0.1231
    124  CA       -24.3670   24.7710  -23.6370 C.3   290  ARG290      0.1694
    125  C        -24.8370   25.8870  -22.6980 C.2   290  ARG290      0.2592
    126  O        -26.0390   26.1180  -22.5890 O.2   290  ARG290     -0.2718
    127  CB       -24.4140   23.3980  -22.9520 C.3   290  ARG290      0.0321
    128  CG       -24.3360   22.2530  -23.9490 C.3   290  ARG290      0.0489
    129  CD       -24.0450   20.9030  -23.3260 C.3   290  ARG290      0.2205
    130  NE       -22.6800   20.8290  -22.8200 N.pl3 290  ARG290     -0.0865
    131  CZ       -22.3020   20.8770  -21.5390 C.cat 290  ARG290      0.5346
    132  NH1      -23.1720   20.9710  -20.5400 N.pl3 290  ARG290      0.1354
    133  NH2      -21.0130   20.8170  -21.2520 N.pl3 290  ARG290      0.1354
    134  N        -23.9070   26.5940  -22.0500 N.am  291  SER291     -0.1952
    135  CA       -24.2570   27.6600  -21.1080 C.3   291  SER291      0.1924
    136  C        -23.6540   29.0330  -21.4440 C.2   291  SER291      0.2314
    137  O        -23.6660   29.9330  -20.6060 O.2   291  SER291     -0.2863
    138  CB       -23.8650   27.2360  -19.6920 C.3   291  SER291      0.2116
    139  OG       -22.5190   26.7900  -19.6610 O.3   291  SER291     -0.2180
    140  N        -16.1930   18.5280   -7.8820 N.3   360  TYR360     -0.1241
    141  CA       -15.2250   19.6080   -8.0110 C.3   360  TYR360      0.1605
    142  C        -14.3470   19.6550   -6.7740 C.2   360  TYR360      0.2264
    143  O        -14.7770   19.2960   -5.6790 O.2   360  TYR360     -0.2867
    144  CB       -15.9290   20.9500   -8.2180 C.3   360  TYR360      0.0534
    145  CG       -16.9080   20.9180   -9.3730 C.ar  360  TYR360     -0.0201
    146  CD1      -16.4720   20.6530  -10.6660 C.ar  360  TYR360     -0.0009
    147  CD2      -18.2750   21.1270   -9.1690 C.ar  360  TYR360     -0.0009
    148  CE1      -17.3640   20.5990  -11.7250 C.ar  360  TYR360      0.0417
    149  CE2      -19.1690   21.0810  -10.2210 C.ar  360  TYR360      0.0417
    150  CZ       -18.7090   20.8150  -11.4980 C.ar  360  TYR360      0.1957
    151  OH       -19.5900   20.7610  -12.5460 O.3   360  TYR360     -0.2866
@<TRIPOS>BOND
     1   123   124    1
     2   128   129    1
     3   128   127    1
     4   117   118    2
     5   117   116    1
     6   124   127    1
     7   124   125    1
     8   129   130    1
     9    56    57    1
    10   115   116    1
    11   116   119    1
    12   130   131    2
    13   125   126    2
    14   125   134   am
    15    57    60    1
    16    57    58    1
    17    60    61    1
    18    62    61   ar
    19    62    64   ar
    20   134   135    1
    21   121   120    2
    22   131   133    1
    23   131   132    1
    24    61    63   ar
    25   136   135    1
    26   136   137    2
    27   119   120    1
    28    64    65   ar
    29    58    59    2
    30   135   138    1
    31   120   122   am
    32    63    65   ar
    33   138   139    1
    34    39    40    1
    35    40    41    1
    36    40    43    1
    37    46    47    2
    38    46    45    1
    39    33    34    2
    40    33    32    1
    41    42    41    2
    42    41    44   am
    43    44    45    1
    44    37    36    2
    45    32    31    1
    46    32    35    1
    47    45    48    1
    48    36    38   am
    49    36    35    1
    50    66    67    1
    51    72    71   ar
    52    48    49    1
    53    29    28    1
    54    89    91   ar
    55    89    87   ar
    56    67    68    1
    57    67    70    1
    58    91    92   ar
    59   103   104    1
    60   104   107    1
    61   104   105    1
    62   109   111   ar
    63   109   108   ar
    64    82    83    1
    65    71    70    1
    66    71    73   ar
    67    68    74   am
    68    68    69    2
    69    74    75    1
    70   111   113   ar
    71    86    87    1
    72    86    83    1
    73    27    26    2
    74    49    50   ar
    75    49    51   ar
    76    87    88   ar
    77   107   108    1
    78    83    84    1
    79    26    25    1
    80   105   106    2
    81    76    75    1
    82    76    77    2
    83    92    93    1
    84    92    90   ar
    85    50    52   ar
    86    28    25    1
    87    28    30    1
    88   108   110   ar
    89    75    78    1
    90    51    53   ar
    91   102   100   am
    92    25    24    1
    93   113   114    1
    94   113   112   ar
    95   101   100    2
    96    88    90   ar
    97   100    99    1
    98    52    54   ar
    99    12    11    1
   100    84    85    2
   101    53    54   ar
   102   110   112   ar
   103    81    79   am
   104    54    55    1
   105    78    79    1
   106    99    98    1
   107    98    95    1
   108    11     9   ar
   109    11    10   ar
   110    79    80    2
   111   151   150    1
   112     9     7   ar
   113    97    96    2
   114    21    19   ar
   115    21    23   ar
   116    10     8   ar
   117   148   150   ar
   118   148   146   ar
   119    96    95    1
   120    19    18   ar
   121    95    94    1
   122    23    22   ar
   123   150   149   ar
   124     7     6   ar
   125     8     6   ar
   126   146   145   ar
   127     6     5    1
   128    18    17    1
   129    18    20   ar
   130    22    20   ar
   131   149   147   ar
   132    16    15    2
   133    17    14    1
   134    15    14    1
   135   145   147   ar
   136   145   144    1
   137     5     2    1
   138    14    13    1
   139   144   141    1
   140     2     1    1
   141     2     3    1
   142   141   140    1
   143   141   142    1
   144     4     3    2
   145   142   143    2
