@<TRIPOS>MOLECULE
tmp/6npeA01.pdb
 121 115 0 0 0
SMALL
GASTEIGER

@<TRIPOS>ATOM
      1  N          6.8460   13.2200  -27.4620 N.3    96  ARG96      -0.1245
      2  CA         7.7580   12.7950  -28.5230 C.3    96  ARG96       0.1563
      3  C          8.4520   13.9540  -29.2190 C.2    96  ARG96       0.2260
      4  O          9.4620   13.7330  -29.8920 O.2    96  ARG96      -0.2867
      5  CB         7.0150   11.9470  -29.5490 C.3    96  ARG96       0.0307
      6  CG         6.4330   10.6730  -28.9630 C.3    96  ARG96       0.0489
      7  CD         5.8340    9.8110  -30.0560 C.3    96  ARG96       0.2205
      8  NE         5.1550    8.6340  -29.5220 N.pl3  96  ARG96      -0.0865
      9  CZ         4.5600    7.7260  -30.2880 C.cat  96  ARG96       0.5346
     10  NH1        4.5620    7.8820  -31.6070 N.pl3  96  ARG96       0.1354
     11  NH2        3.9540    6.6780  -29.7450 N.pl3  96  ARG96       0.1354
     12  N         14.4830   12.3440  -31.9520 N.3   101  ALA101     -0.1245
     13  CA        15.3960   11.3740  -32.5550 C.3   101  ALA101      0.1562
     14  C         16.7750   11.4090  -31.9100 C.2   101  ALA101      0.2260
     15  O         17.4020   10.3630  -31.7240 O.2   101  ALA101     -0.2867
     16  CB        15.5000   11.6170  -34.0700 C.3   101  ALA101      0.0290
     17  N         16.5350    9.6190  -28.5750 N.3   104  LEU104     -0.1231
     18  CA        16.4830    8.1730  -28.7890 C.3   104  LEU104      0.1693
     19  C         17.8720    7.6200  -29.0770 C.2   104  LEU104      0.2591
     20  O         18.2790    6.6000  -28.5060 O.2   104  LEU104     -0.2718
     21  CB        15.5250    7.8390  -29.9450 C.3   104  LEU104      0.0284
     22  CG        14.0490    8.2520  -29.8110 C.3   104  LEU104      0.0019
     23  CD1       13.2340    7.9090  -31.0630 C.3   104  LEU104      0.0001
     24  CD2       13.3950    7.6370  -28.5760 C.3   104  LEU104      0.0001
     25  N         18.6030    8.2690  -29.9900 N.am  105  LEU105     -0.1980
     26  CA        19.9940    7.9020  -30.2440 C.3   105  LEU105      0.1596
     27  C         20.8210    7.9250  -28.9660 C.2   105  LEU105      0.2287
     28  O         21.6160    7.0110  -28.7090 O.2   105  LEU105     -0.2864
     29  CB        20.5960    8.8660  -31.2690 C.3   105  LEU105      0.0297
     30  CG        22.0680    8.6400  -31.5800 C.3   105  LEU105      0.0022
     31  CD1       22.2180    7.2450  -32.1910 C.3   105  LEU105      0.0001
     32  CD2       22.5620    9.7070  -32.5470 C.3   105  LEU105      0.0001
     33  N         19.9810    4.8340  -26.8440 N.3   108  ALA108     -0.1245
     34  CA        20.5780    3.6140  -27.3870 C.3   108  ALA108      0.1562
     35  C         22.0790    3.5590  -27.1150 C.2   108  ALA108      0.2260
     36  O         22.6260    2.4940  -26.7890 O.2   108  ALA108     -0.2867
     37  CB        20.2920    3.5200  -28.8940 C.3   108  ALA108      0.0290
     38  N         16.4910   -1.9810  -29.5430 N.3   193  LEU193     -0.1245
     39  CA        16.5640   -0.8670  -30.4960 C.3   193  LEU193      0.1561
     40  C         15.2270   -0.6300  -31.1850 C.2   193  LEU193      0.2260
     41  O         14.8080    0.5180  -31.3910 O.2   193  LEU193     -0.2867
     42  CB        17.6350   -1.1370  -31.5590 C.3   193  LEU193      0.0270
     43  CG        19.1010   -0.8740  -31.2520 C.3   193  LEU193      0.0019
     44  CD1       19.9410   -0.9450  -32.5380 C.3   193  LEU193      0.0001
     45  CD2       19.2620    0.4940  -30.5780 C.3   193  LEU193      0.0001
     46  N         12.8370    1.0200  -28.8750 N.3   196  ILE196     -0.1231
     47  CA        13.1270    2.4430  -28.7720 C.3   196  ILE196      0.1692
     48  C         12.5920    3.1890  -29.9880 C.2   196  ILE196      0.2592
     49  O         11.9410    4.2320  -29.8530 O.2   196  ILE196     -0.2718
     50  CB        14.6380    2.6580  -28.5800 C.3   196  ILE196      0.0266
     51  CG1       15.0330    2.2270  -27.1650 C.3   196  ILE196      0.0019
     52  CG2       15.0280    4.1020  -28.8720 C.3   196  ILE196      0.0020
     53  CD1       16.5530    2.1650  -26.9690 C.3   196  ILE196      0.0001
     54  N         12.8460    2.6530  -31.1960 N.am  197  ALA197     -0.1966
     55  CA        12.4920    3.3480  -32.4330 C.3   197  ALA197      0.1728
     56  C         10.9830    3.4760  -32.6130 C.2   197  ALA197      0.2617
     57  O         10.5160    4.3760  -33.3200 O.2   197  ALA197     -0.2715
     58  CB        13.0940    2.6240  -33.6530 C.3   197  ALA197      0.0334
     59  N         10.2100    2.5800  -32.0140 N.am  198  THR198     -0.1937
     60  CA         8.7570    2.6350  -32.0880 C.3   198  THR198      0.2028
     61  C          8.1210    3.2290  -30.8310 C.2   198  THR198      0.2642
     62  O          6.9080    3.1060  -30.6520 O.2   198  THR198     -0.2714
     63  CB         8.1890    1.2400  -32.3210 C.3   198  THR198      0.1808
     64  OG1        8.5030    0.4220  -31.1890 O.3   198  THR198     -0.2208
     65  CG2        8.7970    0.6080  -33.5900 C.3   198  THR198      0.0379
     66  N          8.9060    3.8480  -29.9560 N.am  199  TYR199     -0.1973
     67  CA         8.3830    4.3920  -28.6910 C.3   199  TYR199      0.1639
     68  C          7.6140    3.3350  -27.9030 C.2   199  TYR199      0.2290
     69  O          6.5540    3.6020  -27.3230 O.2   199  TYR199     -0.2864
     70  CB         7.5090    5.6300  -28.9280 C.3   199  TYR199      0.0560
     71  CG         8.3020    6.8450  -29.3490 C.ar  199  TYR199     -0.0198
     72  CD1        8.8760    7.6880  -28.3900 C.ar  199  TYR199     -0.0009
     73  CD2        8.4860    7.1510  -30.6970 C.ar  199  TYR199     -0.0009
     74  CE1        9.6120    8.8090  -28.7710 C.ar  199  TYR199      0.0417
     75  CE2        9.2180    8.2650  -31.0860 C.ar  199  TYR199      0.0417
     76  CZ         9.7760    9.0900  -30.1240 C.ar  199  TYR199      0.1957
     77  OH        10.5020   10.1920  -30.5210 O.3   199  TYR199     -0.2866
     78  N          8.8920    3.0980  -38.9220 N.3   226  GLU226     -0.1231
     79  CA         8.7200    4.4420  -39.4680 C.3   226  GLU226      0.1699
     80  C          9.6330    5.4430  -38.7680 C.2   226  GLU226      0.2593
     81  O          9.7220    5.4770  -37.5360 O.2   226  GLU226     -0.2718
     82  CB         7.2640    4.8920  -39.3510 C.3   226  GLU226      0.0402
     83  CG         7.0540    6.3330  -39.8240 C.3   226  GLU226      0.1161
     84  CD         5.5940    6.6930  -40.0510 C.2   226  GLU226      0.3649
     85  OE1        4.7090    5.9410  -39.5920 O.co2 226  GLU226     -0.2457
     86  OE2        5.3340    7.7240  -40.7080 O.co2 226  GLU226     -0.2457
     87  N         10.3300    6.2480  -39.5630 N.am  227  GLY227     -0.1942
     88  CA        11.1960    7.2720  -39.0230 C.3   227  GLY227      0.2014
     89  C         12.5440    6.7890  -38.5380 C.2   227  GLY227      0.2639
     90  O         13.3950    7.6220  -38.2020 O.2   227  GLY227     -0.2714
     91  N         12.7770    5.4860  -38.4940 N.am  228  CYS228     -0.1954
     92  CA        14.0580    4.9820  -38.0170 C.3   228  CYS228      0.1828
     93  C         15.1490    5.2560  -39.0530 C.2   228  CYS228      0.2467
     94  O         14.9620    4.9630  -40.2440 O.2   228  CYS228     -0.2730
     95  CB        13.9400    3.4870  -37.7170 C.3   228  CYS228      0.0996
     96  SG        15.4520    2.6870  -37.1680 S.3   228  CYS228     -0.0797
     97  N         16.2810    5.8280  -38.6570 N.am  229  PRO229     -0.2726
     98  CA        17.3570    6.0590  -39.6250 C.3   229  PRO229      0.1402
     99  C         17.8520    4.7410  -40.1990 C.2   229  PRO229      0.2269
    100  O         17.8790    3.7150  -39.5140 O.2   229  PRO229     -0.2865
    101  CB        18.4420    6.7600  -38.8020 C.3   229  PRO229      0.0296
    102  CG        17.7150    7.3160  -37.5920 C.3   229  PRO229      0.0237
    103  CD        16.5830    6.3870  -37.3260 C.3   229  PRO229      0.0939
    104  N         20.6650    3.0760  -38.3860 N.3   232  VAL232     -0.1245
    105  CA        20.2890    2.4000  -37.1490 C.3   232  VAL232      0.1561
    106  C         19.6660    1.0530  -37.4730 C.2   232  VAL232      0.2260
    107  O         19.9330    0.0510  -36.7940 O.2   232  VAL232     -0.2867
    108  CB        19.3570    3.2820  -36.3000 C.3   232  VAL232      0.0252
    109  CG1       18.7430    2.4680  -35.1430 C.3   232  VAL232      0.0019
    110  CG2       20.1470    4.4590  -35.7510 C.3   232  VAL232      0.0019
    111  N         27.5670    3.8480  -32.5180 N.3   257  PHE257     -0.1241
    112  CA        26.6790    4.8820  -31.9880 C.3   257  PHE257      0.1605
    113  C         27.4580    6.1400  -31.6220 C.2   257  PHE257      0.2264
    114  O         26.9740    7.2580  -31.8490 O.2   257  PHE257     -0.2867
    115  CB        25.8910    4.3620  -30.7780 C.3   257  PHE257      0.0534
    116  CG        24.6820    3.5460  -31.1580 C.ar  257  PHE257     -0.0203
    117  CD1       23.7230    4.0640  -32.0040 C.ar  257  PHE257     -0.0042
    118  CD2       24.5170    2.2620  -30.6810 C.ar  257  PHE257     -0.0042
    119  CE1       22.6040    3.3070  -32.3660 C.ar  257  PHE257     -0.0003
    120  CE2       23.4030    1.5010  -31.0300 C.ar  257  PHE257     -0.0003
    121  CZ        22.4520    2.0180  -31.8720 C.ar  257  PHE257     -0.0000
@<TRIPOS>BOND
     1    86    84   ar
     2    94    93    2
     3    99    98    1
     4    99   100    2
     5    84    83    1
     6    84    85   ar
     7    83    82    1
     8    98   101    1
     9    98    97    1
    10    87    88    1
    11    87    80   am
    12    79    82    1
    13    79    78    1
    14    79    80    1
    15    93    97   am
    16    93    92    1
    17    88    89    1
    18   101   102    1
    19    80    81    2
    20    97   103    1
    21    89    91   am
    22    89    90    2
    23    91    92    1
    24   104   105    1
    25    92    95    1
    26    95    96    1
    27   102   103    1
    28   106   105    1
    29   106   107    2
    30   105   108    1
    31   108   110    1
    32   108   109    1
    33    16    13    1
    34    58    55    1
    35    65    63    1
    36    57    56    2
    37    56    55    1
    38    56    59   am
    39    13    12    1
    40    13    14    1
    41    32    30    1
    42    44    43    1
    43   111   112    1
    44    55    54    1
    45   119   117   ar
    46   119   121   ar
    47    63    60    1
    48    63    64    1
    49    31    30    1
    50    60    59    1
    51    60    61    1
    52   117   116   ar
    53   112   113    1
    54   112   115    1
    55    14    15    2
    56   121   120   ar
    57   114   113    2
    58    10     9    1
    59    30    29    1
    60    42    43    1
    61    42    39    1
    62    41    40    2
    63    29    26    1
    64    43    45    1
    65    54    48   am
    66    40    39    1
    67   116   115    1
    68   116   118   ar
    69    75    73   ar
    70    75    76   ar
    71    23    22    1
    72   120   118   ar
    73    61    62    2
    74    61    66   am
    75    73    71   ar
    76    77    76    1
    77    39    38    1
    78     9    11    1
    79     9     8    2
    80    26    25    1
    81    26    27    1
    82    76    74   ar
    83     7     8    1
    84     7     6    1
    85    25    19   am
    86    48    49    2
    87    48    47    1
    88    66    67    1
    89    21    22    1
    90    21    18    1
    91     4     3    2
    92    22    24    1
    93     5     6    1
    94     5     2    1
    95    71    70    1
    96    71    72   ar
    97     3     2    1
    98    19    18    1
    99    19    20    2
   100    27    28    2
   101    70    67    1
   102    37    34    1
   103    46    47    1
   104    52    50    1
   105    18    17    1
   106    47    50    1
   107    74    72   ar
   108    67    68    1
   109    50    51    1
   110     2     1    1
   111    68    69    2
   112    34    35    1
   113    34    33    1
   114    51    53    1
   115    35    36    2
