@<TRIPOS>MOLECULE
tmp/6npnB01.pdb
 104 97 0 0 0
SMALL
GASTEIGER

@<TRIPOS>ATOM
      1  N         -2.9440    4.6570   55.8410 N.3   201  ARG201     -0.1245
      2  CA        -2.7340    3.5020   56.6800 C.3   201  ARG201      0.1563
      3  C         -4.0080    3.2250   57.4930 C.2   201  ARG201      0.2260
      4  O         -4.4000    2.0570   57.6710 O.2   201  ARG201     -0.2867
      5  CB        -1.5060    3.6530   57.5820 C.3   201  ARG201      0.0307
      6  CG        -1.6230    4.6870   58.6850 C.3   201  ARG201      0.0489
      7  CD        -0.3400    4.6920   59.5050 C.3   201  ARG201      0.2205
      8  NE        -0.4720    5.4800   60.7200 N.pl3 201  ARG201     -0.0865
      9  CZ         0.5030    5.6160   61.6280 C.cat 201  ARG201      0.5346
     10  NH1        1.6530    4.9770   61.4650 N.pl3 201  ARG201      0.1354
     11  NH2        0.3160    6.4180   62.6650 N.pl3 201  ARG201      0.1354
     12  N         -6.1410   -0.1980   57.9530 N.3   205  GLU205     -0.1245
     13  CA        -6.3640   -0.7220   59.3010 C.3   205  GLU205      0.1567
     14  C         -7.8570   -1.0230   59.4960 C.2   205  GLU205      0.2260
     15  O         -8.2280   -2.0940   59.9600 O.2   205  GLU205     -0.2867
     16  CB        -5.8220    0.2720   60.3300 C.3   205  GLU205      0.0388
     17  CG        -5.9020   -0.1820   61.7770 C.3   205  GLU205      0.1160
     18  CD        -5.5000    0.9270   62.7590 C.2   205  GLU205      0.3649
     19  OE1       -4.8280    1.8890   62.3570 O.co2 205  GLU205     -0.2457
     20  OE2       -5.9390    0.8890   63.8980 O.co2 205  GLU205     -0.2457
     21  N         -9.8200   -4.6140   60.4900 N.3   209  TYR209     -0.1241
     22  CA       -10.7800   -4.9010   61.5350 C.3   209  TYR209      0.1605
     23  C        -12.0730   -5.4680   60.9280 C.2   209  TYR209      0.2264
     24  O        -12.6480   -6.3650   61.5120 O.2   209  TYR209     -0.2867
     25  CB       -11.0630   -3.6800   62.4030 C.3   209  TYR209      0.0534
     26  CG        -9.8640   -3.0940   63.1040 C.ar  209  TYR209     -0.0201
     27  CD1       -8.9070   -3.8840   63.6990 C.ar  209  TYR209     -0.0009
     28  CD2       -9.7300   -1.7220   63.2260 C.ar  209  TYR209     -0.0009
     29  CE1       -7.8110   -3.3350   64.3570 C.ar  209  TYR209      0.0417
     30  CE2       -8.6590   -1.1540   63.8920 C.ar  209  TYR209      0.0417
     31  CZ        -7.7020   -1.9650   64.4790 C.ar  209  TYR209      0.1957
     32  OH        -6.6350   -1.3860   65.0960 O.3   209  TYR209     -0.2866
     33  N         -6.9350   -1.6160   70.8300 N.3   235  LYS235     -0.1245
     34  CA        -6.4050   -1.6520   69.4730 C.3   235  LYS235      0.1561
     35  C         -4.8850   -1.4410   69.5030 C.2   235  LYS235      0.2260
     36  O         -4.1550   -2.1080   68.7680 O.2   235  LYS235     -0.2867
     37  CB        -7.0980   -0.6200   68.5800 C.3   235  LYS235      0.0271
     38  CG        -8.5040   -0.9870   68.1690 C.3   235  LYS235      0.0035
     39  CD        -9.2090    0.1020   67.4500 C.3   235  LYS235      0.0206
     40  CE       -10.6000   -0.2820   67.0170 C.3   235  LYS235      0.1093
     41  NZ       -11.3810    0.9050   66.6260 N.3   235  LYS235     -0.1314
     42  N         -3.2110   -4.6340   70.6800 N.3   238  TYR238     -0.1227
     43  CA        -3.3180   -5.6820   69.7020 C.3   238  TYR238      0.1736
     44  C         -2.4860   -5.3630   68.4460 C.2   238  TYR238      0.2595
     45  O         -2.1100   -6.2660   67.7260 O.2   238  TYR238     -0.2718
     46  CB        -4.7790   -5.9880   69.3800 C.3   238  TYR238      0.0548
     47  CG        -5.4470   -6.8260   70.4370 C.ar  238  TYR238     -0.0200
     48  CD1       -4.9520   -8.0700   70.7670 C.ar  238  TYR238     -0.0009
     49  CD2       -6.5630   -6.3890   71.1230 C.ar  238  TYR238     -0.0009
     50  CE1       -5.5580   -8.8740   71.7210 C.ar  238  TYR238      0.0417
     51  CE2       -7.1790   -7.1730   72.0830 C.ar  238  TYR238      0.0417
     52  CZ        -6.6710   -8.4230   72.3900 C.ar  238  TYR238      0.1957
     53  OH        -7.2620   -9.2320   73.3190 O.3   238  TYR238     -0.2866
     54  N         -2.1750   -4.0950   68.2010 N.am  239  ARG239     -0.1980
     55  CA        -1.2350   -3.7300   67.1510 C.3   239  ARG239      0.1597
     56  C          0.1840   -4.0810   67.6050 C.2   239  ARG239      0.2287
     57  O          0.9690   -4.5850   66.8180 O.2   239  ARG239     -0.2864
     58  CB        -1.3830   -2.2480   66.7990 C.3   239  ARG239      0.0334
     59  CG        -0.4350   -1.7510   65.7310 C.3   239  ARG239      0.0492
     60  CD        -0.7510   -0.3260   65.3150 C.3   239  ARG239      0.2205
     61  NE         0.1160    0.2040   64.2600 N.pl3 239  ARG239     -0.0865
     62  CZ         1.3140    0.7620   64.4640 C.cat 239  ARG239      0.5346
     63  NH1        1.8280    0.8150   65.6890 N.pl3 239  ARG239      0.1354
     64  NH2        1.9750    1.3040   63.4520 N.pl3 239  ARG239      0.1354
     65  N          0.3060   -8.5890   67.4420 N.3   242  ILE242     -0.1245
     66  CA        -0.5960   -9.1500   66.4460 C.3   242  ILE242      0.1561
     67  C         -0.8990  -10.6380   66.6630 C.2   242  ILE242      0.2260
     68  O         -2.0090  -11.0700   66.4230 O.2   242  ILE242     -0.2867
     69  CB        -0.1310   -8.8220   65.0230 C.3   242  ILE242      0.0252
     70  CG1       -0.3740   -7.3340   64.7610 C.3   242  ILE242      0.0019
     71  CG2       -0.8530   -9.6790   64.0060 C.3   242  ILE242      0.0019
     72  CD1        0.2180   -6.8120   63.4810 C.3   242  ILE242      0.0001
     73  N         -3.6580  -10.8670   68.9300 N.3   245  LEU245     -0.1245
     74  CA        -4.9370  -10.5240   68.3110 C.3   245  LEU245      0.1561
     75  C         -5.4810  -11.7690   67.5950 C.2   245  LEU245      0.2260
     76  O         -6.6810  -12.0860   67.7170 O.2   245  LEU245     -0.2867
     77  CB        -4.7980   -9.3480   67.3410 C.3   245  LEU245      0.0270
     78  CG        -6.0540   -8.9930   66.5330 C.3   245  LEU245      0.0019
     79  CD1       -7.1160   -8.3600   67.4110 C.3   245  LEU245      0.0001
     80  CD2       -5.7280   -8.0520   65.3930 C.3   245  LEU245      0.0001
     81  N         -2.1440   -7.5470   58.5450 N.3   263  MET263     -0.1245
     82  CA        -2.0880   -6.6580   59.7000 C.3   263  MET263      0.1570
     83  C         -0.6250   -6.2750   59.9780 C.2   263  MET263      0.2261
     84  O         -0.3550   -5.1210   60.3130 O.2   263  MET263     -0.2867
     85  CB        -2.7040   -7.2840   60.9630 C.3   263  MET263      0.0387
     86  CG        -4.2080   -7.5330   60.8840 C.3   263  MET263      0.0595
     87  SD        -5.1900   -6.0620   60.4800 S.3   263  MET263     -0.1393
     88  CE        -5.6430   -5.5940   62.1500 C.3   263  MET263      0.0692
     89  N          0.3890   -3.5760   57.3220 N.3   266  VAL266     -0.1231
     90  CA        -0.2190   -2.2820   57.6030 C.3   266  VAL266      0.1692
     91  C          0.4910   -1.6380   58.7990 C.2   266  VAL266      0.2591
     92  O          0.6930   -0.4400   58.8260 O.2   266  VAL266     -0.2718
     93  CB        -1.7390   -2.4250   57.8270 C.3   266  VAL266      0.0266
     94  CG1       -2.3620   -1.1840   58.4420 C.3   266  VAL266      0.0020
     95  CG2       -2.4500   -2.7760   56.5270 C.3   266  VAL266      0.0020
     96  N          0.8900   -2.4490   59.7790 N.am  267  LYS267     -0.1980
     97  CA         1.5850   -1.9610   60.9700 C.3   267  LYS267      0.1596
     98  C          2.8940   -1.2440   60.6080 C.2   267  LYS267      0.2287
     99  O          3.3090   -0.3450   61.3030 O.2   267  LYS267     -0.2864
    100  CB         1.8630   -3.1300   61.9130 C.3   267  LYS267      0.0298
    101  CG         2.6170   -2.7570   63.1850 C.3   267  LYS267      0.0038
    102  CD         2.7890   -3.9080   64.1130 C.3   267  LYS267      0.0206
    103  CE         3.6560   -3.5730   65.3140 C.3   267  LYS267      0.1093
    104  NZ         3.7790   -4.7540   66.2070 N.3   267  LYS267     -0.1314
@<TRIPOS>BOND
     1     1     2    1
     2    95    93    1
     3     2     3    1
     4     2     5    1
     5    89    90    1
     6     3     4    2
     7     5     6    1
     8    90    93    1
     9    90    91    1
    10    93    94    1
    11    12    13    1
    12    81    82    1
    13     6     7    1
    14    91    92    2
    15    91    96   am
    16    13    14    1
    17    13    16    1
    18    14    15    2
    19     7     8    1
    20    82    83    1
    21    82    85    1
    22    96    97    1
    23    83    84    2
    24    16    17    1
    25    87    86    1
    26    87    88    1
    27    21    22    1
    28    98    97    1
    29    98    99    2
    30     8     9    2
    31    86    85    1
    32    23    24    2
    33    23    22    1
    34    97   100    1
    35    10     9    1
    36    22    25    1
    37     9    11    1
    38    17    18    1
    39   100   101    1
    40    19    18   ar
    41    25    26    1
    42    18    20   ar
    43    26    28   ar
    44    26    27   ar
    45   101   102    1
    46    28    30   ar
    47    64    62    1
    48    72    70    1
    49    27    29   ar
    50    30    31   ar
    51    71    69    1
    52   102   103    1
    53    61    62    2
    54    61    60    1
    55    29    31   ar
    56    62    63    1
    57    31    32    1
    58    70    69    1
    59    69    66    1
    60   103   104    1
    61    60    59    1
    62    80    78    1
    63    59    58    1
    64    68    67    2
    65    66    67    1
    66    66    65    1
    67    78    77    1
    68    78    79    1
    69    41    40    1
    70    58    55    1
    71    57    56    2
    72    40    39    1
    73    55    56    1
    74    55    54    1
    75    77    74    1
    76    39    38    1
    77    75    76    2
    78    75    74    1
    79    45    44    2
    80    38    37    1
    81    54    44   am
    82    74    73    1
    83    44    43    1
    84    37    34    1
    85    36    35    2
    86    46    43    1
    87    46    47    1
    88    34    35    1
    89    34    33    1
    90    43    42    1
    91    47    48   ar
    92    47    49   ar
    93    48    50   ar
    94    49    51   ar
    95    50    52   ar
    96    51    52   ar
    97    52    53    1
