@<TRIPOS>MOLECULE
tmp/6npnC00.pdb
 161 152 0 0 0
SMALL
GASTEIGER

@<TRIPOS>ATOM
      1  N        -26.1460  -64.8980   37.9970 N.3    23  ILE23      -0.1245
      2  CA       -27.2710  -64.0390   37.6170 C.3    23  ILE23       0.1561
      3  C        -27.3810  -64.1020   36.0890 C.2    23  ILE23       0.2260
      4  O        -26.5400  -64.7330   35.4110 O.2    23  ILE23      -0.2867
      5  CB       -27.0860  -62.5950   38.1340 C.3    23  ILE23       0.0252
      6  CG1      -28.3550  -61.7840   37.8780 C.3    23  ILE23       0.0019
      7  CG2      -25.8780  -61.9440   37.4810 C.3    23  ILE23       0.0019
      8  CD1      -28.5900  -60.7510   38.9400 C.3    23  ILE23       0.0001
      9  N        -21.2940  -63.2120   35.9920 N.3    25  ILE25      -0.1245
     10  CA       -21.7930  -62.1840   36.9010 C.3    25  ILE25       0.1561
     11  C        -22.5410  -62.8920   38.0360 C.2    25  ILE25       0.2260
     12  O        -23.3560  -63.7670   37.7740 O.2    25  ILE25      -0.2867
     13  CB       -22.7180  -61.1810   36.1770 C.3    25  ILE25       0.0252
     14  CG1      -22.0420  -60.5440   34.9610 C.3    25  ILE25       0.0019
     15  CG2      -23.2200  -60.1220   37.1330 C.3    25  ILE25       0.0019
     16  CD1      -22.9350  -59.6160   34.1610 C.3    25  ILE25       0.0001
     17  N        -24.6580  -62.2580   42.0200 N.3    27  LEU27      -0.1245
     18  CA       -25.1300  -61.4150   43.0980 C.3    27  LEU27       0.1561
     19  C        -24.0190  -61.3020   44.1430 C.2    27  LEU27       0.2260
     20  O        -23.1780  -62.1420   44.2180 O.2    27  LEU27      -0.2867
     21  CB       -26.3990  -62.0090   43.7120 C.3    27  LEU27       0.0270
     22  CG       -27.6340  -61.9950   42.8230 C.3    27  LEU27       0.0019
     23  CD1      -28.8050  -62.6290   43.5470 C.3    27  LEU27       0.0001
     24  CD2      -27.9920  -60.5810   42.4030 C.3    27  LEU27       0.0001
     25  N        -23.6890  -56.7270   42.3230 N.3    43  VAL43      -0.1245
     26  CA       -23.2400  -57.8090   41.5160 C.3    43  VAL43       0.1561
     27  C        -21.7260  -57.7050   41.4020 C.2    43  VAL43       0.2260
     28  O        -21.1760  -56.6510   41.6000 O.2    43  VAL43      -0.2867
     29  CB       -23.8640  -57.7860   40.1100 C.3    43  VAL43       0.0252
     30  CG1      -25.3770  -57.8200   40.1660 C.3    43  VAL43       0.0019
     31  CG2      -23.3790  -56.5770   39.3000 C.3    43  VAL43       0.0019
     32  N        -18.7950  -58.8200   38.5740 N.3    45  LYS45      -0.1245
     33  CA       -18.5270  -59.1950   37.2040 C.3    45  LYS45       0.1561
     34  C        -17.0820  -59.6920   37.1500 C.2    45  LYS45       0.2260
     35  O        -16.2270  -59.0890   37.7260 O.2    45  LYS45      -0.2867
     36  CB       -18.7910  -57.9740   36.3210 C.3    45  LYS45       0.0271
     37  CG       -18.6730  -58.2290   34.8260 C.3    45  LYS45       0.0035
     38  CD       -18.5130  -56.9810   33.9910 C.3    45  LYS45       0.0206
     39  CE       -19.7460  -56.0960   33.9600 C.3    45  LYS45       0.1093
     40  NZ       -19.9890  -55.5050   32.6150 N.3    45  LYS45      -0.1314
     41  N        -13.9090  -50.6600   31.0370 N.3    57  GLU57      -0.1245
     42  CA       -15.0500  -50.4580   31.8680 C.3    57  GLU57       0.1567
     43  C        -14.6150  -50.0730   33.2820 C.2    57  GLU57       0.2260
     44  O        -15.1790  -49.1430   33.8740 O.2    57  GLU57      -0.2867
     45  CB       -15.8970  -51.7180   31.8830 C.3    57  GLU57       0.0388
     46  CG       -17.2280  -51.5070   32.5980 C.3    57  GLU57       0.1160
     47  CD       -18.2950  -52.5130   32.2080 C.2    57  GLU57       0.3649
     48  OE1      -17.9760  -53.7350   32.2450 O.co2  57  GLU57      -0.2457
     49  OE2      -19.4310  -52.0800   31.9220 O.co2  57  GLU57      -0.2457
     50  N        -15.3990  -46.7210   35.5220 N.3    61  TYR61      -0.1241
     51  CA       -16.0240  -46.7500   36.8270 C.3    61  TYR61       0.1605
     52  C        -15.1470  -46.1130   37.9040 C.2    61  TYR61       0.2264
     53  O        -15.6360  -45.3850   38.7450 O.2    61  TYR61      -0.2867
     54  CB       -16.4340  -48.1770   37.1860 C.3    61  TYR61       0.0534
     55  CG       -17.7910  -48.5600   36.6350 C.ar   61  TYR61      -0.0201
     56  CD1      -18.9440  -47.9760   37.1250 C.ar   61  TYR61      -0.0009
     57  CD2      -17.9190  -49.4890   35.6230 C.ar   61  TYR61      -0.0009
     58  CE1      -20.1780  -48.3000   36.6240 C.ar   61  TYR61       0.0417
     59  CE2      -19.1580  -49.8270   35.1180 C.ar   61  TYR61       0.0417
     60  CZ       -20.2820  -49.2250   35.6270 C.ar   61  TYR61       0.1957
     61  OH       -21.5180  -49.5370   35.1600 O.3    61  TYR61      -0.2866
     62  N        -24.3540  -46.2880   37.3700 N.3    85  PRO85      -0.2116
     63  CA       -24.1200  -47.2950   38.4060 C.3    85  PRO85       0.1372
     64  C        -22.8630  -46.9710   39.2310 C.2    85  PRO85       0.2244
     65  O        -21.8810  -46.4530   38.7080 O.2    85  PRO85      -0.2868
     66  CB       -23.8720  -48.5930   37.6400 C.3    85  PRO85       0.0268
     67  CG       -24.4250  -48.3140   36.2400 C.3    85  PRO85       0.0207
     68  CD       -24.2120  -46.8370   36.0170 C.3    85  PRO85       0.0892
     69  N        -20.3560  -53.7220   41.4190 N.3   105  MET105     -0.1230
     70  CA       -21.2130  -52.6170   41.0620 C.3   105  MET105      0.1702
     71  C        -22.6350  -52.8630   41.4850 C.2   105  MET105      0.2592
     72  O        -22.9690  -53.9230   41.9680 O.2   105  MET105     -0.2718
     73  CB       -21.1780  -52.3630   39.5730 C.3   105  MET105      0.0401
     74  CG       -21.4510  -53.5820   38.7310 C.3   105  MET105      0.0596
     75  SD       -20.7710  -53.2090   37.1240 S.3   105  MET105     -0.1393
     76  CE       -19.3890  -52.2080   37.6450 C.3   105  MET105      0.0692
     77  N        -23.4610  -51.8510   41.3060 N.am  106  ASP106     -0.1960
     78  CA       -24.8540  -51.9300   41.6730 C.3   106  ASP106      0.1840
     79  C        -25.6130  -53.0300   40.9510 C.2   106  ASP106      0.2622
     80  O        -25.3700  -53.3250   39.7980 O.2   106  ASP106     -0.2715
     81  CB       -25.5530  -50.6230   41.3060 C.3   106  ASP106      0.1450
     82  CG       -25.2590  -49.5070   42.2620 C.2   106  ASP106      0.3671
     83  OD1      -24.9420  -49.7860   43.4220 O.co2 106  ASP106     -0.2456
     84  OD2      -25.3590  -48.3470   41.8460 O.co2 106  ASP106     -0.2456
     85  N        -26.5000  -53.6730   41.6910 N.am  107  ARG107     -0.1963
     86  CA       -27.4180  -54.6500   41.1490 C.3   107  ARG107      0.1729
     87  C        -28.6860  -53.9110   40.7240 C.2   107  ARG107      0.2616
     88  O        -29.2250  -53.0760   41.4860 O.2   107  ARG107     -0.2715
     89  CB       -27.7940  -55.7010   42.1970 C.3   107  ARG107      0.0348
     90  CG       -28.8210  -56.7150   41.7170 C.3   107  ARG107      0.0492
     91  CD       -30.2360  -56.3670   42.1070 C.3   107  ARG107      0.2205
     92  NE       -31.2010  -57.3620   41.6460 N.pl3 107  ARG107     -0.0865
     93  CZ       -31.5130  -58.4830   42.2960 C.cat 107  ARG107      0.5346
     94  NH1      -31.0460  -58.7190   43.5120 N.pl3 107  ARG107      0.1354
     95  NH2      -32.2510  -59.3880   41.6880 N.pl3 107  ARG107      0.1354
     96  N        -29.1730  -54.2340   39.5450 N.am  108  PHE108     -0.1960
     97  CA       -30.3510  -53.5960   39.0140 C.3   108  PHE108      0.1771
     98  C        -31.4060  -54.6330   38.7310 C.2   108  PHE108      0.2620
     99  O        -31.1840  -55.8200   38.8900 O.2   108  PHE108     -0.2715
    100  CB       -30.0250  -52.8070   37.7500 C.3   108  PHE108      0.0574
    101  CG       -29.0980  -51.6610   37.9830 C.ar  108  PHE108     -0.0200
    102  CD1      -29.5170  -50.5460   38.6730 C.ar  108  PHE108     -0.0042
    103  CD2      -27.7990  -51.7080   37.5310 C.ar  108  PHE108     -0.0042
    104  CE1      -28.6610  -49.4960   38.8970 C.ar  108  PHE108     -0.0003
    105  CE2      -26.9390  -50.6580   37.7490 C.ar  108  PHE108     -0.0003
    106  CZ       -27.3710  -49.5500   38.4330 C.ar  108  PHE108     -0.0000
    107  N        -32.5750  -54.1620   38.3440 N.am  109  GLY109     -0.1940
    108  CA       -33.6600  -55.0420   38.0120 C.3   109  GLY109      0.2014
    109  C        -33.6630  -55.3030   36.5230 C.2   109  GLY109      0.2640
    110  O        -32.6460  -55.5820   35.9210 O.2   109  GLY109     -0.2714
    111  N        -34.8400  -55.2490   35.9370 N.am  110  SER110     -0.1935
    112  CA       -35.0180  -55.4950   34.5210 C.3   110  SER110      0.2055
    113  C        -34.5180  -54.4370   33.5180 C.2   110  SER110      0.2643
    114  O        -34.5880  -53.2460   33.7720 O.2   110  SER110     -0.2714
    115  CB       -36.5090  -55.7320   34.2840 C.3   110  SER110      0.2130
    116  OG       -36.7890  -55.9980   32.9330 O.3   110  SER110     -0.2179
    117  N        -33.9830  -54.9040   32.3920 N.am  111  ASP111     -0.1971
    118  CA       -33.6340  -54.0360   31.2760 C.3   111  ASP111      0.1709
    119  C        -34.9150  -53.5130   30.6050 C.2   111  ASP111      0.2293
    120  O        -35.9630  -54.1080   30.7230 O.2   111  ASP111     -0.2864
    121  CB       -32.7110  -54.7690   30.3020 C.3   111  ASP111      0.1436
    122  CG       -33.3940  -55.8520   29.4820 C.2   111  ASP111      0.3671
    123  OD1      -34.0310  -55.5120   28.4910 O.co2 111  ASP111     -0.2456
    124  OD2      -33.2760  -57.0230   29.8330 O.co2 111  ASP111     -0.2456
    125  N        -31.5860  -52.2070   25.8060 N.3   155  SER155     -0.1202
    126  CA       -30.9240  -53.3430   26.4700 C.3   155  SER155      0.2020
    127  C        -29.7800  -52.8910   27.4000 C.2   155  SER155      0.2618
    128  O        -29.3460  -53.6760   28.2430 O.2   155  SER155     -0.2717
    129  CB       -30.4800  -54.4140   25.4860 C.3   155  SER155      0.2103
    130  OG       -29.4420  -53.9840   24.6230 O.3   155  SER155     -0.2182
    131  N        -29.3380  -51.6280   27.3130 N.am  156  ASN156     -0.1974
    132  CA       -28.2800  -51.1040   28.2110 C.3   156  ASN156      0.1688
    133  C        -28.8840  -50.1250   29.2200 C.2   156  ASN156      0.2292
    134  O        -28.1650  -49.3510   29.8640 O.2   156  ASN156     -0.2864
    135  CB       -27.1470  -50.4150   27.4370 C.3   156  ASN156      0.1181
    136  CG       -26.2310  -51.3790   26.7100 C.2   156  ASN156      0.2629
    137  OD1      -26.0370  -52.5180   27.1720 O.2   156  ASN156     -0.2716
    138  ND2      -25.6700  -50.9380   25.5850 N.am  156  ASN156     -0.0877
    139  N        -31.3080  -50.1530   32.5710 N.3   158  LEU158     -0.1245
    140  CA       -31.8440  -51.0330   33.5940 C.3   158  LEU158      0.1561
    141  C        -32.5440  -50.1840   34.6610 C.2   158  LEU158      0.2260
    142  O        -32.1030  -49.0800   34.9900 O.2   158  LEU158     -0.2867
    143  CB       -30.7240  -51.8380   34.2520 C.3   158  LEU158      0.0270
    144  CG       -29.7050  -52.5700   33.3830 C.3   158  LEU158      0.0019
    145  CD1      -28.8650  -53.5300   34.2400 C.3   158  LEU158      0.0001
    146  CD2      -30.3520  -53.3240   32.2400 C.3   158  LEU158      0.0001
    147  N        -25.9070  -48.7220   31.5960 N.3   170  VAL170     -0.1231
    148  CA       -24.8600  -49.6660   31.8950 C.3   170  VAL170      0.1692
    149  C        -24.0540  -49.9840   30.6290 C.2   170  VAL170      0.2592
    150  O        -24.4020  -49.5270   29.5260 O.2   170  VAL170     -0.2718
    151  CB       -25.4280  -50.9550   32.5180 C.3   170  VAL170      0.0266
    152  CG1      -26.2220  -50.6510   33.7810 C.3   170  VAL170      0.0020
    153  CG2      -26.2630  -51.7580   31.5220 C.3   170  VAL170      0.0020
    154  N        -22.9820  -50.7610   30.8340 N.am  171  ASP171     -0.1974
    155  CA       -22.1080  -51.3090   29.8460 C.3   171  ASP171      0.1709
    156  C        -21.1910  -50.2100   29.3100 C.2   171  ASP171      0.2293
    157  O        -21.5230  -49.5410   28.3300 O.2   171  ASP171     -0.2864
    158  CB       -22.8430  -52.0190   28.6950 C.3   171  ASP171      0.1436
    159  CG       -21.8850  -52.8600   27.8570 C.2   171  ASP171      0.3671
    160  OD1      -20.6370  -52.5950   27.8860 O.co2 171  ASP171     -0.2456
    161  OD2      -22.3640  -53.7760   27.2120 O.co2 171  ASP171     -0.2456
@<TRIPOS>BOND
     1   130   129    1
     2   129   126    1
     3   138   136   am
     4   125   126    1
     5   126   127    1
     6   136   137    2
     7   136   135    1
     8   161   159   ar
     9   131   127   am
    10   131   132    1
    11   127   128    2
    12   135   132    1
    13   159   160   ar
    14   159   158    1
    15   132   133    1
    16   157   156    2
    17   123   122   ar
    18   158   155    1
    19   133   134    2
    20   156   155    1
    21   122   124   ar
    22   122   121    1
    23   150   149    2
    24   155   154    1
    25   121   118    1
    26   119   120    2
    27   119   118    1
    28   149   154   am
    29   149   148    1
    30    41    42    1
    31   118   117    1
    32   153   151    1
    33   147   148    1
    34    42    45    1
    35    42    43    1
    36    45    46    1
    37   148   151    1
    38    49    47   ar
    39    47    48   ar
    40    47    46    1
    41   146   144    1
    42   117   113   am
    43   151   152    1
    44   139   140    1
    45    40    39    1
    46   116   115    1
    47    43    44    2
    48   144   145    1
    49   144   143    1
    50   113   114    2
    51   113   112    1
    52   140   143    1
    53   140   141    1
    54    39    38    1
    55    38    37    1
    56    16    14    1
    57   115   112    1
    58   112   111    1
    59   141   142    2
    60    37    36    1
    61    14    13    1
    62    59    57   ar
    63    59    60   ar
    64    61    60    1
    65     4     3    2
    66    50    51    1
    67    57    55   ar
    68    60    58   ar
    69   110   109    2
    70   111   109   am
    71     9    10    1
    72    68    67    1
    73    68    62    1
    74     3     2    1
    75    13    10    1
    76    13    15    1
    77    67    66    1
    78    36    33    1
    79   109   108    1
    80    58    56   ar
    81    55    56   ar
    82    55    54    1
    83    51    54    1
    84    51    52    1
    85    10    11    1
    86    75    76    1
    87    75    74    1
    88    34    33    1
    89    34    35    2
    90    33    32    1
    91    62    63    1
    92     7     5    1
    93   103   105   ar
    94   103   101   ar
    95     2     1    1
    96     2     5    1
    97    66    63    1
    98   105   106   ar
    99   100   101    1
   100   100    97    1
   101    12    11    2
   102     6     5    1
   103     6     8    1
   104    52    53    2
   105   101   102   ar
   106   108   107    1
   107   107    98   am
   108    63    64    1
   109   106   104   ar
   110   102   104   ar
   111    65    64    2
   112    98    99    2
   113    98    97    1
   114    74    73    1
   115    97    96    1
   116    31    29    1
   117    96    87   am
   118    73    70    1
   119    80    79    2
   120    29    30    1
   121    29    26    1
   122    87    86    1
   123    87    88    2
   124    79    78    1
   125    79    85   am
   126    70    69    1
   127    70    71    1
   128    86    85    1
   129    86    89    1
   130    81    78    1
   131    81    82    1
   132    77    71   am
   133    77    78    1
   134    27    26    1
   135    27    28    2
   136    71    72    2
   137    26    25    1
   138    92    91    1
   139    92    93    2
   140    95    93    1
   141    90    91    1
   142    90    89    1
   143    84    82   ar
   144    17    18    1
   145    82    83   ar
   146    93    94    1
   147    24    22    1
   148    22    23    1
   149    22    21    1
   150    18    21    1
   151    18    19    1
   152    19    20    2
