@<TRIPOS>MOLECULE
tmp/6npoA00.pdb
 78 75 0 0 0
SMALL
GASTEIGER

@<TRIPOS>ATOM
      1  N         18.6720   27.6140   58.3400 N.3    25  THR25      -0.1203
      2  CA        19.4430   26.7470   57.4270 C.3    25  THR25       0.1994
      3  C         20.8850   26.5930   57.9220 C.2    25  THR25       0.2618
      4  O         21.6390   25.8810   57.2570 O.2    25  THR25      -0.2717
      5  CB        19.4260   27.4020   56.0450 C.3    25  THR25       0.1784
      6  OG1       18.0710   27.5080   55.6080 O.3    25  THR25      -0.2211
      7  CG2       20.1950   26.6190   55.0160 C.3    25  THR25       0.0376
      8  N         21.2970   27.2990   58.9770 N.am   26  ASP26      -0.1959
      9  CA        22.7380   27.5770   59.1790 C.3    26  ASP26       0.1840
     10  C         23.1800   27.2140   60.6080 C.2    26  ASP26       0.2622
     11  O         22.3210   27.0700   61.4960 O.2    26  ASP26      -0.2715
     12  CB        23.0370   29.0240   58.8040 C.3    26  ASP26       0.1450
     13  CG        22.3460   29.9870   59.7370 C.2    26  ASP26       0.3671
     14  OD1       21.1750   30.3320   59.4190 O.co2  26  ASP26      -0.2456
     15  OD2       22.9680   30.3390   60.8050 O.co2  26  ASP26      -0.2456
     16  N         24.4860   27.1000   60.8430 N.am   27  THR27      -0.1951
     17  CA        25.0090   26.6800   62.1650 C.3    27  THR27       0.1897
     18  C         24.8240   27.8090   63.1850 C.2    27  THR27       0.2313
     19  O         24.7000   27.4820   64.3580 O.2    27  THR27      -0.2863
     20  CB        26.4600   26.1920   62.0790 C.3    27  THR27       0.1794
     21  OG1       27.2230   27.2630   61.5290 O.3    27  THR27      -0.2208
     22  CG2       26.6020   24.9380   61.2360 C.3    27  THR27       0.0378
     23  N         21.2580   27.7570   64.4110 N.3    30  SER30      -0.1217
     24  CA        21.1810   26.4680   65.1400 C.3    30  SER30       0.1889
     25  C         21.7690   26.6250   66.5510 C.2    30  SER30       0.2288
     26  O         21.1770   26.0570   67.5220 O.2    30  SER30      -0.2866
     27  CB        21.8650   25.3800   64.3750 C.3    30  SER30       0.2089
     28  OG        21.0950   25.0580   63.2390 O.3    30  SER30      -0.2183
     29  N         14.6180   23.3220   54.6150 N.3   102  TYR102     -0.1241
     30  CA        14.9880   22.1430   55.4460 C.3   102  TYR102      0.1605
     31  C         13.8240   21.1860   55.6610 C.2   102  TYR102      0.2264
     32  O         13.9250   20.3000   56.5330 O.2   102  TYR102     -0.2867
     33  CB        15.5360   22.5610   56.8110 C.3   102  TYR102      0.0534
     34  CG        16.9970   22.2560   56.8800 C.ar  102  TYR102     -0.0201
     35  CD1       17.4440   21.0560   57.3770 C.ar  102  TYR102     -0.0009
     36  CD2       17.9000   23.0910   56.2680 C.ar  102  TYR102     -0.0009
     37  CE1       18.7900   20.7570   57.3940 C.ar  102  TYR102      0.0417
     38  CE2       19.2500   22.8140   56.2700 C.ar  102  TYR102      0.0417
     39  CZ        19.6960   21.6420   56.8410 C.ar  102  TYR102      0.1957
     40  OH        21.0290   21.3730   56.8120 O.3   102  TYR102     -0.2866
     41  N         17.7680   17.5840   66.4710 N.3   152  PHE152     -0.1241
     42  CA        18.2830   18.4970   65.4120 C.3   152  PHE152      0.1605
     43  C         17.3450   19.7000   65.3570 C.2   152  PHE152      0.2264
     44  O         16.1350   19.5390   65.4640 O.2   152  PHE152     -0.2867
     45  CB        18.3770   17.7700   64.0630 C.3   152  PHE152      0.0534
     46  CG        18.9150   18.6200   62.9420 C.ar  152  PHE152     -0.0203
     47  CD1       20.2770   18.8080   62.7950 C.ar  152  PHE152     -0.0042
     48  CD2       18.0630   19.2620   62.0510 C.ar  152  PHE152     -0.0042
     49  CE1       20.7730   19.6240   61.7880 C.ar  152  PHE152     -0.0003
     50  CE2       18.5640   20.0540   61.0260 C.ar  152  PHE152     -0.0003
     51  CZ        19.9190   20.2420   60.9030 C.ar  152  PHE152     -0.0000
     52  N         28.0260   21.4580   57.6570 N.3   414  SER414     -0.1203
     53  CA        28.1180   20.7080   58.9420 C.3   414  SER414      0.2005
     54  C         27.0940   19.5820   58.8750 C.2   414  SER414      0.2461
     55  O         25.9910   19.7860   58.4140 O.2   414  SER414     -0.2732
     56  CB        27.9360   21.6300   60.1390 C.3   414  SER414      0.2103
     57  OG        27.7440   20.8740   61.3320 O.3   414  SER414     -0.2182
     58  N         27.4200   18.3490   59.2890 N.am  415  PRO415     -0.2717
     59  CA        26.4940   17.2360   59.1140 C.3   415  PRO415      0.1535
     60  C         25.2180   17.4010   59.9610 C.2   415  PRO415      0.2598
     61  O         25.2750   17.9400   61.0540 O.2   415  PRO415     -0.2715
     62  CB        27.3740   16.0660   59.5480 C.3   415  PRO415      0.0310
     63  CG        28.2370   16.6650   60.6470 C.3   415  PRO415      0.0237
     64  CD        28.6360   17.9750   60.0200 C.3   415  PRO415      0.0939
     65  N         24.0890   16.9610   59.4250 N.am  416  ASP416     -0.1972
     66  CA        22.8100   16.9230   60.1710 C.3   416  ASP416      0.1709
     67  C         22.7040   15.5970   60.9350 C.2   416  ASP416      0.2293
     68  O         21.8870   15.5300   61.8840 O.2   416  ASP416     -0.2864
     69  CB        21.6180   17.1700   59.2450 C.3   416  ASP416      0.1436
     70  CG        21.7370   18.4590   58.4520 C.2   416  ASP416      0.3671
     71  OD1       22.5140   19.3170   58.8670 O.co2 416  ASP416     -0.2456
     72  OD2       21.0790   18.5690   57.4170 O.co2 416  ASP416     -0.2456
     73  N         24.7400   20.0890   64.8180 N.3   499  SER499     -0.1217
     74  CA        24.1510   21.3390   65.3370 C.3   499  SER499      0.1889
     75  C         23.0010   20.9650   66.2670 C.2   499  SER499      0.2288
     76  O         22.2800   20.0140   66.0010 O.2   499  SER499     -0.2866
     77  CB        23.7430   22.2010   64.1900 C.3   499  SER499      0.2089
     78  OG        22.6330   21.5970   63.5650 O.3   499  SER499     -0.2183
@<TRIPOS>BOND
     1    29    30    1
     2     7     5    1
     3    30    31    1
     4    30    33    1
     5     6     5    1
     6    31    32    2
     7     5     2    1
     8    36    38   ar
     9    36    34   ar
    10    38    39   ar
    11    33    34    1
    12    40    39    1
    13    39    37   ar
    14    34    35   ar
    15     4     3    2
    16    35    37   ar
    17    72    70   ar
    18     2     3    1
    19     2     1    1
    20    52    53    1
    21     3     8   am
    22    55    54    2
    23    70    71   ar
    24    70    69    1
    25    12     9    1
    26    12    13    1
    27    54    53    1
    28    54    58   am
    29    53    56    1
    30     8     9    1
    31    59    58    1
    32    59    62    1
    33    59    60    1
    34     9    10    1
    35    69    66    1
    36    58    64    1
    37    14    13   ar
    38    65    60   am
    39    65    66    1
    40    62    63    1
    41    13    15   ar
    42    60    61    2
    43    64    63    1
    44    56    57    1
    45    66    67    1
    46    10    16   am
    47    10    11    2
    48    16    17    1
    49    51    50   ar
    50    51    49   ar
    51    67    68    2
    52    50    48   ar
    53    22    20    1
    54    21    20    1
    55    49    47   ar
    56    48    46   ar
    57    20    17    1
    58    17    18    1
    59    47    46   ar
    60    46    45    1
    61    18    19    2
    62    28    27    1
    63    78    77    1
    64    45    42    1
    65    77    74    1
    66    27    24    1
    67    23    24    1
    68    73    74    1
    69    24    25    1
    70    74    75    1
    71    43    42    1
    72    43    44    2
    73    42    41    1
    74    76    75    2
    75    25    26    2
