@<TRIPOS>MOLECULE
tmp/6npuB01.pdb
 121 115 0 0 0
SMALL
GASTEIGER

@<TRIPOS>ATOM
      1  N         21.8610   31.6590  -21.4800 N.3    94  ARG94      -0.1245
      2  CA        21.1040   30.4310  -21.2900 C.3    94  ARG94       0.1563
      3  C         21.8720   29.1890  -21.7050 C.2    94  ARG94       0.2260
      4  O         21.4730   28.0850  -21.3220 O.2    94  ARG94      -0.2867
      5  CB        19.7850   30.5030  -22.0410 C.3    94  ARG94       0.0307
      6  CG        18.9100   31.6180  -21.5460 C.3    94  ARG94       0.0489
      7  CD        17.4680   31.3420  -21.8710 C.3    94  ARG94       0.2205
      8  NE        16.6170   32.4670  -21.5090 N.pl3  94  ARG94      -0.0865
      9  CZ        15.3470   32.5490  -21.8670 C.cat  94  ARG94       0.5346
     10  NH1       14.8100   31.5600  -22.5740 N.pl3  94  ARG94       0.1354
     11  NH2       14.6170   33.6040  -21.5330 N.pl3  94  ARG94       0.1354
     12  N         19.8510   23.5270  -18.2770 N.3    99  ALA99      -0.1245
     13  CA        18.9060   22.7320  -17.5060 C.3    99  ALA99       0.1562
     14  C         19.5550   22.0860  -16.2910 C.2    99  ALA99       0.2260
     15  O         18.9040   21.9440  -15.2460 O.2    99  ALA99      -0.2867
     16  CB        18.2800   21.6670  -18.4000 C.3    99  ALA99       0.0290
     17  N         19.7380   25.0980  -13.8810 N.3   102  LEU102     -0.1231
     18  CA        18.4030   25.3820  -13.3780 C.3   102  LEU102      0.1693
     19  C         17.9960   24.3510  -12.3370 C.2   102  LEU102      0.2591
     20  O         17.4560   24.6970  -11.2850 O.2   102  LEU102     -0.2718
     21  CB        17.4060   25.3980  -14.5360 C.3   102  LEU102      0.0284
     22  CG        17.6250   26.4860  -15.5890 C.3   102  LEU102      0.0019
     23  CD1       16.4850   26.4570  -16.5870 C.3   102  LEU102      0.0001
     24  CD2       17.7210   27.8430  -14.9170 C.3   102  LEU102      0.0001
     25  N         18.2720   23.0740  -12.6100 N.am  103  LEU103     -0.1980
     26  CA        17.9540   22.0270  -11.6520 C.3   103  LEU103      0.1596
     27  C         18.7910   22.1750  -10.3780 C.2   103  LEU103      0.2287
     28  O         18.2930   21.9660   -9.2630 O.2   103  LEU103     -0.2864
     29  CB        18.1780   20.6720  -12.3170 C.3   103  LEU103      0.0297
     30  CG        17.8270   19.4300  -11.5270 C.3   103  LEU103      0.0022
     31  CD1       16.3330   19.4230  -11.2970 C.3   103  LEU103      0.0001
     32  CD2       18.2780   18.1990  -12.2820 C.3   103  LEU103      0.0001
     33  N         17.1650   24.8820   -8.1740 N.3   106  ALA106     -0.1245
     34  CA        15.9630   24.4290   -7.4750 C.3   106  ALA106      0.1562
     35  C         16.3180   23.4840   -6.3350 C.2   106  ALA106      0.2260
     36  O         15.6990   23.5360   -5.2650 O.2   106  ALA106     -0.2867
     37  CB        14.9910   23.7470   -8.4410 C.3   106  ALA106      0.0290
     38  N          9.4830   27.5920   -8.9340 N.3   176  LEU176     -0.1245
     39  CA         9.8960   26.6570   -9.9860 C.3   176  LEU176      0.1561
     40  C          9.5020   27.1790  -11.3620 C.2   176  LEU176      0.2260
     41  O         10.3110   27.1730  -12.2930 O.2   176  LEU176     -0.2867
     42  CB         9.2820   25.2710   -9.7600 C.3   176  LEU176      0.0270
     43  CG         9.7390   24.4890   -8.5100 C.3   176  LEU176      0.0019
     44  CD1        9.0770   23.1290   -8.4650 C.3   176  LEU176      0.0001
     45  CD2       11.2590   24.3510   -8.5070 C.3   176  LEU176      0.0001
     46  N         11.7890   29.8530  -12.4080 N.3   179  ILE179     -0.1231
     47  CA        13.0460   29.2950  -12.8820 C.3   179  ILE179      0.1692
     48  C         12.8790   28.7590  -14.2990 C.2   179  ILE179      0.2592
     49  O         13.6650   29.0850  -15.1990 O.2   179  ILE179     -0.2718
     50  CB        13.5510   28.2100  -11.9160 C.3   179  ILE179      0.0266
     51  CG1       14.0590   28.8670  -10.6270 C.3   179  ILE179      0.0019
     52  CG2       14.6300   27.3430  -12.5970 C.3   179  ILE179      0.0020
     53  CD1       14.4140   27.9030   -9.5300 C.3   179  ILE179      0.0001
     54  N         11.8250   27.9660  -14.5280 N.am  180  ALA180     -0.1966
     55  CA        11.6560   27.3330  -15.8370 C.3   180  ALA180      0.1728
     56  C         11.4920   28.3640  -16.9560 C.2   180  ALA180      0.2617
     57  O         11.8870   28.1030  -18.0970 O.2   180  ALA180     -0.2715
     58  CB        10.4720   26.3650  -15.8150 C.3   180  ALA180      0.0334
     59  N         10.9500   29.5470  -16.6580 N.am  181  THR181     -0.1937
     60  CA        10.7400   30.5630  -17.6860 C.3   181  THR181      0.2028
     61  C         11.8320   31.6180  -17.6920 C.2   181  THR181      0.2642
     62  O         11.6420   32.6810  -18.2890 O.2   181  THR181     -0.2714
     63  CB         9.3950   31.2570  -17.4890 C.3   181  THR181      0.1808
     64  OG1        9.4100   31.9050  -16.2100 O.3   181  THR181     -0.2208
     65  CG2        8.2290   30.2570  -17.5680 C.3   181  THR181      0.0379
     66  N         12.9490   31.3690  -17.0080 N.am  182  TYR182     -0.1973
     67  CA        14.0190   32.3530  -16.8570 C.3   182  TYR182      0.1639
     68  C         13.4800   33.6940  -16.3650 C.2   182  TYR182      0.2290
     69  O         13.9350   34.7610  -16.7760 O.2   182  TYR182     -0.2864
     70  CB        14.8030   32.5100  -18.1600 C.3   182  TYR182      0.0560
     71  CG        15.7090   31.3190  -18.4240 C.ar  182  TYR182     -0.0198
     72  CD1       17.0120   31.2850  -17.9250 C.ar  182  TYR182     -0.0009
     73  CD2       15.2490   30.2120  -19.1350 C.ar  182  TYR182     -0.0009
     74  CE1       17.8350   30.2100  -18.1530 C.ar  182  TYR182      0.0417
     75  CE2       16.0820   29.1140  -19.3780 C.ar  182  TYR182      0.0417
     76  CZ        17.3720   29.1220  -18.8790 C.ar  182  TYR182      0.1957
     77  OH        18.2090   28.0410  -19.1080 O.3   182  TYR182     -0.2866
     78  N          7.4400   25.8400  -21.6020 N.3   209  GLU209     -0.1231
     79  CA         8.3110   25.3020  -22.6450 C.3   209  GLU209      0.1699
     80  C          9.6620   24.8590  -22.0900 C.2   209  GLU209      0.2593
     81  O         10.3770   25.6410  -21.4540 O.2   209  GLU209     -0.2718
     82  CB         8.5160   26.3850  -23.7110 C.3   209  GLU209      0.0402
     83  CG         9.3970   25.9860  -24.8810 C.3   209  GLU209      0.1161
     84  CD         9.5520   27.1340  -25.8800 C.2   209  GLU209      0.3649
     85  OE1       10.6150   27.2330  -26.5330 O.co2 209  GLU209     -0.2457
     86  OE2        8.6120   27.9560  -25.9940 O.co2 209  GLU209     -0.2457
     87  N         10.0090   23.5980  -22.3480 N.am  210  GLY210     -0.1942
     88  CA        11.2980   23.0590  -21.9570 C.3   210  GLY210      0.2014
     89  C         11.3710   22.4880  -20.5500 C.2   210  GLY210      0.2639
     90  O         12.4130   21.9260  -20.1780 O.2   210  GLY210     -0.2714
     91  N         10.3030   22.6070  -19.7560 N.am  211  CYS211     -0.1954
     92  CA        10.3320   22.1740  -18.3590 C.3   211  CYS211      0.1828
     93  C         10.1930   20.6570  -18.2820 C.2   211  CYS211      0.2467
     94  O          9.2830   20.0950  -18.8990 O.2   211  CYS211     -0.2730
     95  CB         9.2020   22.8490  -17.5620 C.3   211  CYS211      0.0996
     96  SG         8.8970   22.3120  -15.8190 S.3   211  CYS211     -0.0797
     97  N         11.0590   19.9550  -17.5370 N.am  212  PRO212     -0.2726
     98  CA        10.9460   18.4870  -17.4850 C.3   212  PRO212      0.1402
     99  C          9.6400   18.0640  -16.8250 C.2   212  PRO212      0.2269
    100  O          9.1230   18.7440  -15.9360 O.2   212  PRO212     -0.2865
    101  CB        12.1690   18.0610  -16.6590 C.3   212  PRO212      0.0296
    102  CG        13.1050   19.2360  -16.6710 C.3   212  PRO212      0.0237
    103  CD        12.2210   20.4530  -16.7690 C.3   212  PRO212      0.0939
    104  N          9.6490   17.8490  -12.9740 N.3   215  VAL215     -0.1245
    105  CA         9.5970   19.1780  -12.3710 C.3   215  VAL215      0.1561
    106  C          8.1670   19.7050  -12.4010 C.2   215  VAL215      0.2260
    107  O          7.6340   20.1650  -11.3830 O.2   215  VAL215     -0.2867
    108  CB        10.5850   20.1370  -13.0690 C.3   215  VAL215      0.0252
    109  CG1       10.4100   21.5730  -12.5620 C.3   215  VAL215      0.0019
    110  CG2       12.0280   19.6760  -12.8350 C.3   215  VAL215      0.0019
    111  N         14.4250   16.4500   -5.7110 N.3   240  PHE240     -0.1241
    112  CA        15.4000   17.2230   -6.4810 C.3   240  PHE240      0.1605
    113  C         16.8280   16.6670   -6.3560 C.2   240  PHE240      0.2264
    114  O         17.5660   16.6530   -7.3480 O.2   240  PHE240     -0.2867
    115  CB        15.3340   18.7030   -6.0870 C.3   240  PHE240      0.0534
    116  CG        14.2770   19.4870   -6.8540 C.ar  240  PHE240     -0.0203
    117  CD1       14.4350   19.7460   -8.2120 C.ar  240  PHE240     -0.0042
    118  CD2       13.1170   19.9360   -6.2260 C.ar  240  PHE240     -0.0042
    119  CE1       13.4690   20.4510   -8.9330 C.ar  240  PHE240     -0.0003
    120  CE2       12.1430   20.6410   -6.9380 C.ar  240  PHE240     -0.0003
    121  CZ        12.3260   20.9060   -8.2970 C.ar  240  PHE240     -0.0000
@<TRIPOS>BOND
     1    85    84   ar
     2    86    84   ar
     3    84    83    1
     4    83    82    1
     5    82    79    1
     6    79    80    1
     7    79    78    1
     8    10     9    1
     9    87    80   am
    10    87    88    1
    11    80    81    2
    12     5     6    1
    13     5     2    1
    14    88    89    1
    15     7     6    1
    16     7     8    1
    17     9    11    1
    18     9     8    2
    19     3     4    2
    20     3     2    1
    21     1     2    1
    22    89    90    2
    23    89    91   am
    24    91    92    1
    25    75    73   ar
    26    75    76   ar
    27    73    71   ar
    28    77    76    1
    29    94    93    2
    30    76    74   ar
    31    71    70    1
    32    71    72   ar
    33    16    13    1
    34    92    93    1
    35    92    95    1
    36    62    61    2
    37    93    97   am
    38    12    13    1
    39    70    67    1
    40    74    72   ar
    41    57    56    2
    42    61    60    1
    43    61    66   am
    44    60    63    1
    45    60    59    1
    46    65    63    1
    47    95    96    1
    48    97    98    1
    49    97   103    1
    50    13    14    1
    51    63    64    1
    52    98    99    1
    53    98   101    1
    54    66    67    1
    55    56    59   am
    56    56    55    1
    57    67    68    1
    58    99   100    2
    59    69    68    2
    60   103   102    1
    61   102   101    1
    62    23    22    1
    63    14    15    2
    64    55    58    1
    65    55    54    1
    66    22    24    1
    67    22    21    1
    68    49    48    2
    69    21    18    1
    70    54    48   am
    71    48    47    1
    72    17    18    1
    73    18    19    1
    74   108   110    1
    75   108   109    1
    76   108   105    1
    77   104   105    1
    78    47    46    1
    79    47    50    1
    80    25    19   am
    81    25    26    1
    82    52    50    1
    83   106   105    1
    84   106   107    2
    85    19    20    2
    86    29    26    1
    87    29    30    1
    88    41    40    2
    89    32    30    1
    90    50    51    1
    91    26    27    1
    92    30    31    1
    93    40    39    1
    94    51    53    1
    95    27    28    2
    96    39    42    1
    97    39    38    1
    98    42    43    1
    99   119   121   ar
   100   119   117   ar
   101    43    45    1
   102    43    44    1
   103    37    34    1
   104   121   120   ar
   105   117   116   ar
   106    33    34    1
   107    34    35    1
   108   114   113    2
   109   120   118   ar
   110   116   118   ar
   111   116   115    1
   112   112   113    1
   113   112   115    1
   114   112   111    1
   115    35    36    2
