@<TRIPOS>MOLECULE
tmp/6npvA01.pdb
 145 137 0 0 0
SMALL
GASTEIGER

@<TRIPOS>ATOM
      1  N          6.4890   12.7720  -27.3630 N.3    96  ARG96      -0.1245
      2  CA         7.3730   12.3620  -28.4500 C.3    96  ARG96       0.1563
      3  C          8.0810   13.5390  -29.1070 C.2    96  ARG96       0.2260
      4  O          9.1300   13.3390  -29.7220 O.2    96  ARG96      -0.2867
      5  CB         6.5900   11.5530  -29.4880 C.3    96  ARG96       0.0307
      6  CG         6.1340   10.1990  -28.9750 C.3    96  ARG96       0.0489
      7  CD         5.4770    9.3640  -30.0790 C.3    96  ARG96       0.2205
      8  NE         4.9510    8.0990  -29.5540 N.pl3  96  ARG96      -0.0865
      9  CZ         4.3760    7.1590  -30.2990 C.cat  96  ARG96       0.5346
     10  NH1        4.2480    7.3320  -31.6090 N.pl3  96  ARG96       0.1354
     11  NH2        3.9270    6.0500  -29.7370 N.pl3  96  ARG96       0.1354
     12  N         12.8950   13.0890  -28.9880 N.3   100  ASN100     -0.1225
     13  CA        13.0360   13.0980  -30.4340 C.3   100  ASN100      0.1785
     14  C         14.2160   12.2200  -30.8420 C.2   100  ASN100      0.2597
     15  O         14.8000   11.5010  -30.0220 O.2   100  ASN100     -0.2718
     16  CB        13.1820   14.5450  -30.9230 C.3   100  ASN100      0.1169
     17  CG        14.3410   15.2650  -30.2790 C.2   100  ASN100      0.2627
     18  OD1       15.3090   14.6470  -29.8380 O.2   100  ASN100     -0.2716
     19  ND2       14.2620   16.5920  -30.2370 N.am  100  ASN100     -0.0877
     20  N         14.5830   12.2810  -32.1270 N.am  101  ALA101     -0.1979
     21  CA        15.5830   11.3630  -32.6690 C.3   101  ALA101      0.1597
     22  C         16.9140   11.4450  -31.9210 C.2   101  ALA101      0.2287
     23  O         17.5310   10.4140  -31.6380 O.2   101  ALA101     -0.2864
     24  CB        15.7930   11.6310  -34.1690 C.3   101  ALA101      0.0319
     25  N         16.5350    9.6280  -28.6000 N.3   104  LEU104     -0.1231
     26  CA        16.5180    8.1730  -28.7450 C.3   104  LEU104      0.1693
     27  C         17.9160    7.6470  -29.0530 C.2   104  LEU104      0.2591
     28  O         18.3420    6.6270  -28.4940 O.2   104  LEU104     -0.2718
     29  CB        15.5190    7.7510  -29.8310 C.3   104  LEU104      0.0284
     30  CG        14.0460    8.1450  -29.6090 C.3   104  LEU104      0.0019
     31  CD1       13.1960    7.8190  -30.8360 C.3   104  LEU104      0.0001
     32  CD2       13.4270    7.5010  -28.3730 C.3   104  LEU104      0.0001
     33  N         18.6450    8.3380  -29.9400 N.am  105  LEU105     -0.1980
     34  CA        20.0450    8.0120  -30.1980 C.3   105  LEU105      0.1596
     35  C         20.8710    8.0370  -28.9180 C.2   105  LEU105      0.2287
     36  O         21.7010    7.1480  -28.6770 O.2   105  LEU105     -0.2864
     37  CB        20.6210    9.0000  -31.2090 C.3   105  LEU105      0.0297
     38  CG        22.0730    8.7610  -31.6050 C.3   105  LEU105      0.0022
     39  CD1       22.1790    7.4260  -32.2960 C.3   105  LEU105      0.0001
     40  CD2       22.5240    9.8570  -32.5510 C.3   105  LEU105      0.0001
     41  N         20.0860    4.9240  -26.8090 N.3   108  ALA108     -0.1245
     42  CA        20.7160    3.7230  -27.3530 C.3   108  ALA108      0.1562
     43  C         22.2250    3.7370  -27.1200 C.2   108  ALA108      0.2260
     44  O         22.8320    2.6960  -26.8310 O.2   108  ALA108     -0.2867
     45  CB        20.4110    3.5990  -28.8480 C.3   108  ALA108      0.0290
     46  N         16.6940   -1.9670  -29.5320 N.3   193  LEU193     -0.1245
     47  CA        16.7100   -0.8450  -30.4780 C.3   193  LEU193      0.1561
     48  C         15.3660   -0.6860  -31.1770 C.2   193  LEU193      0.2260
     49  O         14.8970    0.4390  -31.4060 O.2   193  LEU193     -0.2867
     50  CB        17.8040   -1.0390  -31.5290 C.3   193  LEU193      0.0270
     51  CG        19.2480   -0.7110  -31.1720 C.3   193  LEU193      0.0019
     52  CD1       20.1490   -0.8300  -32.4260 C.3   193  LEU193      0.0001
     53  CD2       19.3160    0.6950  -30.5710 C.3   193  LEU193      0.0001
     54  N         12.9100    0.9490  -28.8790 N.3   196  ILE196     -0.1231
     55  CA        13.1620    2.3890  -28.8220 C.3   196  ILE196      0.1692
     56  C         12.5810    3.0910  -30.0480 C.2   196  ILE196      0.2592
     57  O         11.9070    4.1250  -29.9290 O.2   196  ILE196     -0.2718
     58  CB        14.6730    2.6500  -28.6750 C.3   196  ILE196      0.0266
     59  CG1       15.1640    2.2170  -27.2820 C.3   196  ILE196      0.0019
     60  CG2       15.0040    4.1340  -28.9440 C.3   196  ILE196      0.0020
     61  CD1       16.6930    2.2930  -27.1350 C.3   196  ILE196      0.0001
     62  N         12.8090    2.5280  -31.2440 N.am  197  ALA197     -0.1966
     63  CA        12.3570    3.1710  -32.4770 C.3   197  ALA197      0.1728
     64  C         10.8370    3.2220  -32.5900 C.2   197  ALA197      0.2617
     65  O         10.3060    4.0550  -33.3350 O.2   197  ALA197     -0.2715
     66  CB        12.9400    2.4420  -33.6980 C.3   197  ALA197      0.0334
     67  N         10.1280    2.3480  -31.8920 N.am  198  THR198     -0.1937
     68  CA         8.6760    2.3010  -31.9460 C.3   198  THR198      0.2028
     69  C          8.0340    2.8940  -30.7020 C.2   198  THR198      0.2642
     70  O          6.8150    2.7840  -30.5390 O.2   198  THR198     -0.2714
     71  CB         8.1880    0.8680  -32.1200 C.3   198  THR198      0.1808
     72  OG1        8.5850    0.0860  -30.9800 O.3   198  THR198     -0.2208
     73  CG2        8.7730    0.2450  -33.4090 C.3   198  THR198      0.0379
     74  N          8.8270    3.5090  -29.8300 N.am  199  TYR199     -0.1973
     75  CA         8.3300    4.0360  -28.5530 C.3   199  TYR199      0.1639
     76  C          7.6060    2.9500  -27.7630 C.2   199  TYR199      0.2290
     77  O          6.5520    3.1730  -27.1620 O.2   199  TYR199     -0.2864
     78  CB         7.4340    5.2580  -28.7630 C.3   199  TYR199      0.0560
     79  CG         8.1680    6.4840  -29.2520 C.ar  199  TYR199     -0.0198
     80  CD1        8.8920    7.2860  -28.3740 C.ar  199  TYR199     -0.0009
     81  CD2        8.1240    6.8530  -30.5950 C.ar  199  TYR199     -0.0009
     82  CE1        9.5670    8.4360  -28.8290 C.ar  199  TYR199      0.0417
     83  CE2        8.8020    7.9780  -31.0580 C.ar  199  TYR199      0.0417
     84  CZ         9.5150    8.7670  -30.1690 C.ar  199  TYR199      0.1957
     85  OH        10.1700    9.8870  -30.6330 O.3   199  TYR199     -0.2866
     86  N          6.6020   -0.3840  -28.7030 N.3   201  MET201     -0.1245
     87  CA         5.7130   -1.4180  -29.2160 C.3   201  MET201      0.1570
     88  C          6.2570   -2.8000  -28.8590 C.2   201  MET201      0.2261
     89  O          7.4610   -2.9800  -28.6560 O.2   201  MET201     -0.2867
     90  CB         5.5600   -1.2810  -30.7290 C.3   201  MET201      0.0387
     91  CG         4.6990   -0.1050  -31.1630 C.3   201  MET201      0.0595
     92  SD         4.3480   -0.1590  -32.9580 S.3   201  MET201     -0.1393
     93  CE         4.1330   -1.8990  -33.2590 C.3   201  MET201      0.0692
     94  N          8.8830    2.6040  -38.9030 N.3   226  GLU226     -0.1231
     95  CA         8.6500    3.9470  -39.4200 C.3   226  GLU226      0.1699
     96  C          9.5230    4.9700  -38.7060 C.2   226  GLU226      0.2593
     97  O          9.5850    5.0030  -37.4710 O.2   226  GLU226     -0.2718
     98  CB         7.1750    4.3260  -39.2760 C.3   226  GLU226      0.0402
     99  CG         6.8790    5.7360  -39.8000 C.3   226  GLU226      0.1161
    100  CD         5.4660    6.2080  -39.4950 C.2   226  GLU226      0.3649
    101  OE1        4.5930    5.3620  -39.2040 O.co2 226  GLU226     -0.2457
    102  OE2        5.2330    7.4330  -39.5450 O.co2 226  GLU226     -0.2457
    103  N         10.2040    5.8030  -39.4960 N.am  227  GLY227     -0.1942
    104  CA        11.0410    6.8590  -38.9770 C.3   227  GLY227      0.2014
    105  C         12.3940    6.4340  -38.4500 C.2   227  GLY227      0.2639
    106  O         13.1590    7.2940  -37.9990 O.2   227  GLY227     -0.2714
    107  N         12.7200    5.1490  -38.4700 N.am  228  CYS228     -0.1954
    108  CA        14.0060    4.7200  -37.9410 C.3   228  CYS228      0.1828
    109  C         15.1090    5.0760  -38.9330 C.2   228  CYS228      0.2467
    110  O         14.9840    4.7720  -40.1210 O.2   228  CYS228     -0.2730
    111  CB        13.9870    3.2130  -37.6600 C.3   228  CYS228      0.0996
    112  SG        15.5160    2.5540  -36.9830 S.3   228  CYS228     -0.0797
    113  N         16.1840    5.7270  -38.4960 N.am  229  PRO229     -0.2726
    114  CA        17.2700    6.0590  -39.4270 C.3   229  PRO229      0.1402
    115  C         17.8670    4.7950  -40.0260 C.2   229  PRO229      0.2269
    116  O         17.9750    3.7670  -39.3590 O.2   229  PRO229     -0.2865
    117  CB        18.2830    6.8010  -38.5480 C.3   229  PRO229      0.0296
    118  CG        17.4960    7.2430  -37.3230 C.3   229  PRO229      0.0237
    119  CD        16.4400    6.2090  -37.1230 C.3   229  PRO229      0.0939
    120  N         20.7160    3.2380  -38.1940 N.3   232  VAL232     -0.1245
    121  CA        20.3450    2.5180  -36.9780 C.3   232  VAL232      0.1561
    122  C         19.7850    1.1490  -37.3290 C.2   232  VAL232      0.2260
    123  O         20.0880    0.1500  -36.6650 O.2   232  VAL232     -0.2867
    124  CB        19.3460    3.3320  -36.1360 C.3   232  VAL232      0.0252
    125  CG1       18.8180    2.4680  -34.9820 C.3   232  VAL232      0.0019
    126  CG2       20.0050    4.6170  -35.6140 C.3   232  VAL232      0.0019
    127  N         20.7660   -2.7400  -36.2220 N.3   236  MET236     -0.1245
    128  CA        19.8060   -3.7590  -35.7930 C.3   236  MET236      0.1570
    129  C         20.0390   -5.0710  -36.5220 C.2   236  MET236      0.2261
    130  O         20.0700   -6.1490  -35.9130 O.2   236  MET236     -0.2867
    131  CB        18.3750   -3.3010  -36.0770 C.3   236  MET236      0.0387
    132  CG        17.5650   -2.8230  -34.9440 C.3   236  MET236      0.0595
    133  SD        15.9030   -2.4400  -35.5580 S.3   236  MET236     -0.1393
    134  CE        15.8400   -0.7120  -35.1120 C.3   236  MET236      0.0692
    135  N         27.5080    4.2230  -32.4440 N.3   257  PHE257     -0.1241
    136  CA        26.5650    5.2090  -31.9210 C.3   257  PHE257      0.1605
    137  C         27.2740    6.4960  -31.5300 C.2   257  PHE257      0.2264
    138  O         26.7490    7.5980  -31.7520 O.2   257  PHE257     -0.2867
    139  CB        25.8100    4.6250  -30.7270 C.3   257  PHE257      0.0534
    140  CG        24.6230    3.7990  -31.1180 C.ar  257  PHE257     -0.0203
    141  CD1       23.5730    4.3650  -31.8160 C.ar  257  PHE257     -0.0042
    142  CD2       24.5540    2.4560  -30.7880 C.ar  257  PHE257     -0.0042
    143  CE1       22.4700    3.6120  -32.1930 C.ar  257  PHE257     -0.0003
    144  CE2       23.4550    1.6880  -31.1620 C.ar  257  PHE257     -0.0003
    145  CZ        22.4150    2.2670  -31.8730 C.ar  257  PHE257     -0.0000
@<TRIPOS>BOND
     1   110   109    2
     2   115   114    1
     3   115   116    2
     4    99   100    1
     5    99    98    1
     6   102   100   ar
     7   103   104    1
     8   103    96   am
     9   100   101   ar
    10   114   117    1
    11   114   113    1
    12    95    98    1
    13    95    94    1
    14    95    96    1
    15   104   105    1
    16   109   113   am
    17   109   108    1
    18    96    97    2
    19   117   118    1
    20   113   119    1
    21   107   105   am
    22   107   108    1
    23   105   106    2
    24   120   121    1
    25   108   111    1
    26   111   112    1
    27   122   121    1
    28   122   123    2
    29   118   119    1
    30   121   124    1
    31   129   130    2
    32   129   128    1
    33   127   128    1
    34   124   126    1
    35   124   125    1
    36   131   128    1
    37   131   132    1
    38   133   134    1
    39   133   132    1
    40    24    21    1
    41    66    63    1
    42    73    71    1
    43    65    64    2
    44    93    92    1
    45    92    91    1
    46    21    20    1
    47    21    22    1
    48    64    63    1
    49    64    67   am
    50    40    38    1
    51    63    62    1
    52   135   136    1
    53    52    51    1
    54    39    38    1
    55   143   145   ar
    56   143   141   ar
    57    20    14   am
    58    71    68    1
    59    71    72    1
    60    68    67    1
    61    68    69    1
    62    22    23    2
    63   136   137    1
    64   136   139    1
    65   145   144   ar
    66   141   140   ar
    67   138   137    2
    68    10     9    1
    69    38    37    1
    70    50    51    1
    71    50    47    1
    72    49    48    2
    73    62    56   am
    74    37    34    1
    75    48    47    1
    76    51    53    1
    77    91    90    1
    78   144   142   ar
    79   140   142   ar
    80   140   139    1
    81    83    81   ar
    82    83    84   ar
    83    16    13    1
    84    16    17    1
    85    14    13    1
    86    14    15    2
    87    31    30    1
    88    90    87    1
    89    69    70    2
    90    69    74   am
    91    85    84    1
    92    81    79   ar
    93    47    46    1
    94    13    12    1
    95     9    11    1
    96     9     8    2
    97    17    19   am
    98    17    18    2
    99    34    33    1
   100    34    35    1
   101    84    82   ar
   102     7     8    1
   103     7     6    1
   104    56    57    2
   105    56    55    1
   106    33    27   am
   107    29    30    1
   108    29    26    1
   109    74    75    1
   110     4     3    2
   111    30    32    1
   112     5     6    1
   113     5     2    1
   114    79    78    1
   115    79    80   ar
   116    87    88    1
   117    87    86    1
   118     3     2    1
   119    27    26    1
   120    27    28    2
   121    60    58    1
   122    35    36    2
   123    54    55    1
   124    88    89    2
   125    45    42    1
   126    82    80   ar
   127    55    58    1
   128    78    75    1
   129    26    25    1
   130    58    59    1
   131    75    76    1
   132     2     1    1
   133    76    77    2
   134    42    43    1
   135    42    41    1
   136    59    61    1
   137    43    44    2
