@<TRIPOS>MOLECULE
tmp/6nqdA04.pdb
 99 96 0 0 0
SMALL
GASTEIGER

@<TRIPOS>ATOM
      1  N        144.3160  174.1490  133.7170 N.3   163  ASP163     -0.1225
      2  CA       144.2840  175.2950  134.6110 C.3   163  ASP163      0.1790
      3  C        145.1890  175.0400  135.8050 C.2   163  ASP163      0.2439
      4  O        144.9620  174.0770  136.5450 O.2   163  ASP163     -0.2733
      5  CB       142.8530  175.5530  135.0630 C.3   163  ASP163      0.1423
      6  CG       142.7170  176.8160  135.8830 C.2   163  ASP163      0.3668
      7  OD1      143.5840  177.7060  135.7780 O.co2 163  ASP163     -0.2456
      8  OD2      141.7260  176.9280  136.6310 O.co2 163  ASP163     -0.2456
      9  N        146.2140  175.8410  136.0240 N.am  164  PRO164     -0.2729
     10  CA       147.1490  175.5590  137.1190 C.3   164  PRO164      0.1401
     11  C        146.5540  175.9340  138.4710 C.2   164  PRO164      0.2269
     12  O        146.7900  177.0060  139.0160 O.2   164  PRO164     -0.2865
     13  CB       148.3470  176.4460  136.7700 C.3   164  PRO164      0.0296
     14  CG       148.1640  176.8300  135.3450 C.3   164  PRO164      0.0237
     15  CD       146.6990  176.9380  135.1790 C.3   164  PRO164      0.0939
     16  N        151.2770  177.3790  142.1260 N.3   204  LYS204     -0.1245
     17  CA       150.6610  177.1300  140.8480 C.3   204  LYS204      0.1561
     18  C        151.6790  176.4510  139.9590 C.2   204  LYS204      0.2260
     19  O        152.7270  177.0460  139.6760 O.2   204  LYS204     -0.2867
     20  CB       150.1820  178.4320  140.2230 C.3   204  LYS204      0.0271
     21  CG       149.0900  179.0950  141.0310 C.3   204  LYS204      0.0035
     22  CD       148.5410  180.3330  140.3730 C.3   204  LYS204      0.0206
     23  CE       147.5700  181.0350  141.3030 C.3   204  LYS204      0.1093
     24  NZ       146.3530  180.2270  141.5570 N.3   204  LYS204     -0.1314
     25  N        152.8860  176.2600  137.1280 N.3   206  VAL206     -0.1231
     26  CA       152.9940  176.8660  135.8150 C.3   206  VAL206      0.1692
     27  C        154.3230  176.4860  135.2040 C.2   206  VAL206      0.2591
     28  O        155.2630  176.0930  135.8940 O.2   206  VAL206     -0.2718
     29  CB       152.8450  178.3910  135.9070 C.3   206  VAL206      0.0266
     30  CG1      151.4670  178.7380  136.3880 C.3   206  VAL206      0.0020
     31  CG2      153.8860  178.9460  136.8430 C.3   206  VAL206      0.0020
     32  N        154.3950  176.5760  133.8910 N.am  207  VAL207     -0.1980
     33  CA       155.6450  176.4240  133.1760 C.3   207  VAL207      0.1595
     34  C        155.8410  177.6770  132.3340 C.2   207  VAL207      0.2287
     35  O        154.8850  178.1890  131.7400 O.2   207  VAL207     -0.2864
     36  CB       155.6620  175.1190  132.3560 C.3   207  VAL207      0.0276
     37  CG1      154.4840  175.0290  131.3950 C.3   207  VAL207      0.0022
     38  CG2      156.9760  174.9560  131.6310 C.3   207  VAL207      0.0022
     39  N        155.2980  183.5340  135.8320 N.3   213  LEU213     -0.1231
     40  CA       153.9510  184.0600  135.8060 C.3   213  LEU213      0.1693
     41  C        153.1390  183.5050  136.9570 C.2   213  LEU213      0.2592
     42  O        153.3890  182.4010  137.4380 O.2   213  LEU213     -0.2718
     43  CB       153.2580  183.7360  134.5000 C.3   213  LEU213      0.0284
     44  CG       153.8450  184.5690  133.3770 C.3   213  LEU213      0.0019
     45  CD1      154.6580  183.6930  132.4900 C.3   213  LEU213      0.0001
     46  CD2      152.7750  185.2680  132.5970 C.3   213  LEU213      0.0001
     47  N        152.1620  184.3130  137.3860 N.am  214  ASN214     -0.1974
     48  CA       151.2070  184.0020  138.4570 C.3   214  ASN214      0.1688
     49  C        151.8780  183.5990  139.7570 C.2   214  ASN214      0.2292
     50  O        151.3390  182.8000  140.5190 O.2   214  ASN214     -0.2864
     51  CB       150.2080  182.9280  138.0380 C.3   214  ASN214      0.1181
     52  CG       149.0270  183.5000  137.3310 C.2   214  ASN214      0.2629
     53  OD1      148.5180  184.5420  137.7330 O.2   214  ASN214     -0.2716
     54  ND2      148.5760  182.8340  136.2780 N.am  214  ASN214     -0.0877
     55  N        154.7220  179.8050  127.5010 N.3   326  PHE326     -0.1227
     56  CA       153.5400  180.4230  128.0630 C.3   326  PHE326      0.1736
     57  C        152.4100  179.4120  128.0340 C.2   326  PHE326      0.2595
     58  O        152.3760  178.5290  127.1800 O.2   326  PHE326     -0.2718
     59  CB       153.1970  181.6760  127.2740 C.3   326  PHE326      0.0547
     60  CG       152.1440  182.5010  127.8910 C.ar  326  PHE326     -0.0202
     61  CD1      152.4350  183.3270  128.9460 C.ar  326  PHE326     -0.0042
     62  CD2      150.8560  182.4480  127.4250 C.ar  326  PHE326     -0.0042
     63  CE1      151.4550  184.0950  129.5130 C.ar  326  PHE326     -0.0003
     64  CE2      149.8810  183.2190  127.9870 C.ar  326  PHE326     -0.0003
     65  CZ       150.1760  184.0350  129.0340 C.ar  326  PHE326     -0.0000
     66  N        151.4760  179.5520  128.9670 N.am  327  ASN327     -0.1960
     67  CA       150.5390  178.4840  129.2920 C.3   327  ASN327      0.1819
     68  C        149.1150  179.0270  129.2920 C.2   327  ASN327      0.2621
     69  O        148.3780  178.9130  130.2690 O.2   327  ASN327     -0.2715
     70  CB       150.8890  177.8320  130.6260 C.3   327  ASN327      0.1195
     71  CG       150.1700  176.5060  130.8410 C.2   327  ASN327      0.2630
     72  OD1      149.3540  176.0860  130.0190 O.2   327  ASN327     -0.2716
     73  ND2      150.4810  175.8370  131.9440 N.am  327  ASN327     -0.0877
     74  N        148.7170  179.6360  128.1800 N.am  328  CYS328     -0.1968
     75  CA       147.3460  180.1220  128.0610 C.3   328  CYS328      0.1712
     76  C        146.4080  178.9540  127.7610 C.2   328  CYS328      0.2296
     77  O        146.8280  177.7920  127.7810 O.2   328  CYS328     -0.2864
     78  CB       147.2480  181.1940  126.9810 C.3   328  CYS328      0.0983
     79  SG       145.7720  182.2190  127.0650 S.3   328  CYS328     -0.0798
     80  N        143.8220  185.6620  128.1280 N.3   384  CYS384     -0.1221
     81  CA       144.2530  185.2400  129.4450 C.3   384  CYS384      0.1808
     82  C        144.9840  186.3780  130.1410 C.2   384  CYS384      0.2601
     83  O        146.0040  186.8810  129.6440 O.2   384  CYS384     -0.2717
     84  CB       145.0950  183.9690  129.3530 C.3   384  CYS384      0.0970
     85  SG       146.3510  183.8910  128.0810 S.3   384  CYS384     -0.0800
     86  N        144.4250  186.7960  131.2820 N.am  385  LEU385     -0.1965
     87  CA       145.0290  187.8520  132.1350 C.3   385  LEU385      0.1728
     88  C        146.0570  187.1630  133.0370 C.2   385  LEU385      0.2616
     89  O        145.7100  186.1240  133.6320 O.2   385  LEU385     -0.2715
     90  CB       143.9250  188.5180  132.9630 C.3   385  LEU385      0.0311
     91  CG       142.9630  189.4090  132.1790 C.3   385  LEU385      0.0022
     92  CD1      143.7150  190.5240  131.4670 C.3   385  LEU385      0.0001
     93  CD2      142.1550  188.5910  131.1830 C.3   385  LEU385      0.0001
     94  N        147.2680  187.7160  133.1320 N.am  386  SER386     -0.1950
     95  CA       148.3080  187.0810  133.9240 C.3   386  SER386      0.1924
     96  C        149.1110  188.1370  134.6610 C.2   386  SER386      0.2314
     97  O        149.1480  189.3070  134.2740 O.2   386  SER386     -0.2863
     98  CB       149.2260  186.2110  133.0600 C.3   386  SER386      0.2116
     99  OG       148.5320  185.1040  132.5170 O.3   386  SER386     -0.2180
@<TRIPOS>BOND
     1    78    79    1
     2    78    75    1
     3    79    85    1
     4    58    57    2
     5    59    60    1
     6    59    56    1
     7    62    60   ar
     8    62    64   ar
     9    55    56    1
    10    76    77    2
    11    76    75    1
    12    60    61   ar
    13    64    65   ar
    14    57    56    1
    15    57    66   am
    16    75    74    1
    17    85    84    1
    18    80    81    1
    19    74    68   am
    20    61    63   ar
    21    66    67    1
    22    65    63   ar
    23    68    67    1
    24    68    69    2
    25    67    70    1
    26    84    81    1
    27    81    82    1
    28    83    82    2
    29    72    71    2
    30    82    86   am
    31    70    71    1
    32    71    73   am
    33    93    91    1
    34    86    87    1
    35    37    36    1
    36    92    91    1
    37    38    36    1
    38    35    34    2
    39    87    90    1
    40    87    88    1
    41    91    90    1
    42    34    33    1
    43    36    33    1
    44    45    44    1
    45    99    98    1
    46    46    44    1
    47    88    94   am
    48    88    89    2
    49    98    95    1
    50    94    95    1
    51    33    32    1
    52    44    43    1
    53     1     2    1
    54    32    27   am
    55    95    96    1
    56    97    96    2
    57    43    40    1
    58     2     5    1
    59     2     3    1
    60     5     6    1
    61    15    14    1
    62    15     9    1
    63    27    26    1
    64    27    28    2
    65    14    13    1
    66     7     6   ar
    67     3     9   am
    68     3     4    2
    69    40    39    1
    70    40    41    1
    71    26    29    1
    72    26    25    1
    73     6     8   ar
    74    29    30    1
    75    29    31    1
    76     9    10    1
    77    54    52   am
    78    13    10    1
    79    41    47   am
    80    41    42    2
    81    10    11    1
    82    52    53    2
    83    52    51    1
    84    47    48    1
    85    51    48    1
    86    48    49    1
    87    11    12    2
    88    19    18    2
    89    49    50    2
    90    18    17    1
    91    20    17    1
    92    20    21    1
    93    22    21    1
    94    22    23    1
    95    17    16    1
    96    23    24    1
