@<TRIPOS>MOLECULE
tmp/6nqdA10.pdb
 93 87 0 0 0
SMALL
GASTEIGER

@<TRIPOS>ATOM
      1  N        162.2310  190.2850  152.8400 N.3   184  LYS184     -0.1245
      2  CA       163.5050  190.4380  152.1270 C.3   184  LYS184      0.1561
      3  C        164.3810  189.2040  152.2880 C.2   184  LYS184      0.2260
      4  O        165.6040  189.2940  152.3820 O.2   184  LYS184     -0.2867
      5  CB       164.2720  191.6900  152.5600 C.3   184  LYS184      0.0271
      6  CG       163.6530  192.9950  152.1510 C.3   184  LYS184      0.0035
      7  CD       164.5630  194.1590  152.5090 C.3   184  LYS184      0.0206
      8  CE       164.1490  194.8280  153.8100 C.3   184  LYS184      0.1093
      9  NZ       164.5030  194.0300  155.0070 N.3   184  LYS184     -0.1314
     10  N        156.9970  190.7880  149.5870 N.3   219  GLU219     -0.1231
     11  CA       156.2720  191.9970  149.9590 C.3   219  GLU219      0.1699
     12  C        157.1470  193.2480  149.9490 C.2   219  GLU219      0.2592
     13  O        156.8810  194.1820  149.1870 O.2   219  GLU219     -0.2718
     14  CB       155.5860  191.7930  151.3110 C.3   219  GLU219      0.0402
     15  CG       154.4360  190.7960  151.2270 C.3   219  GLU219      0.1161
     16  CD       153.2660  191.2940  150.3880 C.2   219  GLU219      0.3649
     17  OE1      153.0000  192.5120  150.3880 O.co2 219  GLU219     -0.2457
     18  OE2      152.6040  190.4660  149.7280 O.co2 219  GLU219     -0.2457
     19  N        158.1980  193.2880  150.7630 N.am  220  GLU220     -0.1966
     20  CA       158.9450  194.5340  150.8870 C.3   220  GLU220      0.1733
     21  C        160.1010  194.6580  149.9050 C.2   220  GLU220      0.2617
     22  O        160.1960  195.6630  149.2020 O.2   220  GLU220     -0.2715
     23  CB       159.4380  194.7210  152.3240 C.3   220  GLU220      0.0429
     24  CG       158.3830  195.3230  153.2410 C.3   220  GLU220      0.1163
     25  CD       157.3890  194.3150  153.7600 C.2   220  GLU220      0.3649
     26  OE1      157.5920  193.1110  153.5380 O.co2 220  GLU220     -0.2457
     27  OE2      156.3880  194.7290  154.3790 O.co2 220  GLU220     -0.2457
     28  N        160.9750  193.6900  149.8320 N.am  221  GLY221     -0.1940
     29  CA       162.0630  193.7880  148.8860 C.3   221  GLY221      0.2014
     30  C        161.7250  193.1320  147.5730 C.2   221  GLY221      0.2638
     31  O        160.7150  192.4550  147.4400 O.2   221  GLY221     -0.2714
     32  N        162.5720  193.3620  146.5820 N.am  222  ILE222     -0.1977
     33  CA       162.6720  192.4560  145.4520 C.3   222  ILE222      0.1596
     34  C        163.9490  191.6650  145.6700 C.2   222  ILE222      0.2287
     35  O        164.9390  192.1920  146.1920 O.2   222  ILE222     -0.2864
     36  CB       162.6360  193.1800  144.0890 C.3   222  ILE222      0.0276
     37  CG1      163.8800  194.0130  143.8050 C.3   222  ILE222      0.0022
     38  CG2      161.4020  194.0370  143.9800 C.3   222  ILE222      0.0022
     39  CD1      164.8480  193.3380  142.8360 C.3   222  ILE222      0.0001
     40  N        158.3030  192.6040  143.8110 N.3   241  ASN241     -0.1225
     41  CA       157.4120  192.8530  144.9240 C.3   241  ASN241      0.1785
     42  C        156.0730  193.4430  144.5190 C.2   241  ASN241      0.2597
     43  O        155.1850  193.5460  145.3700 O.2   241  ASN241     -0.2718
     44  CB       158.0810  193.7330  146.0010 C.3   241  ASN241      0.1169
     45  CG       158.3090  195.1990  145.5990 C.2   241  ASN241      0.2627
     46  OD1      158.0850  195.6450  144.4700 O.2   241  ASN241     -0.2716
     47  ND2      158.7570  195.9610  146.5950 N.am  241  ASN241     -0.0877
     48  N        155.9080  193.8490  143.2670 N.am  242  GLU242     -0.1979
     49  CA       154.6200  194.2880  142.7560 C.3   242  GLU242      0.1602
     50  C        154.2400  193.4800  141.5300 C.2   242  GLU242      0.2287
     51  O        155.0630  193.2400  140.6430 O.2   242  GLU242     -0.2864
     52  CB       154.6120  195.7760  142.4210 C.3   242  GLU242      0.0415
     53  CG       154.6570  196.6550  143.6500 C.3   242  GLU242      0.1163
     54  CD       154.4770  198.1140  143.3220 C.2   242  GLU242      0.3649
     55  OE1      154.4140  198.4480  142.1240 O.co2 242  GLU242     -0.2457
     56  OE2      154.3890  198.9240  144.2630 O.co2 242  GLU242     -0.2457
     57  N        159.3980  200.8960  136.0530 N.3   291  LYS291     -0.1245
     58  CA       159.6480  201.1200  137.4720 C.3   291  LYS291      0.1561
     59  C        160.2170  199.8770  138.1390 C.2   291  LYS291      0.2260
     60  O        161.1980  199.9650  138.8940 O.2   291  LYS291     -0.2867
     61  CB       158.3730  201.5390  138.1970 C.3   291  LYS291      0.0271
     62  CG       158.6390  201.8830  139.6580 C.3   291  LYS291      0.0035
     63  CD       157.9080  200.9700  140.6410 C.3   291  LYS291      0.0206
     64  CE       156.8530  201.7150  141.4550 C.3   291  LYS291      0.1093
     65  NZ       156.1950  200.8480  142.4720 N.3   291  LYS291     -0.1314
     66  N        163.9350  199.2770  139.7480 N.3   295  ARG295     -0.1245
     67  CA       164.2230  198.7850  141.0890 C.3   295  ARG295      0.1563
     68  C        164.9990  197.4710  141.0500 C.2   295  ARG295      0.2260
     69  O        165.8310  197.2150  141.9330 O.2   295  ARG295     -0.2867
     70  CB       162.9280  198.6430  141.8820 C.3   295  ARG295      0.0307
     71  CG       162.2590  199.9790  142.1490 C.3   295  ARG295      0.0489
     72  CD       161.1130  199.8590  143.1330 C.3   295  ARG295      0.2205
     73  NE       160.4560  201.1440  143.3580 N.pl3 295  ARG295     -0.0865
     74  CZ       160.8700  202.0530  144.2370 C.cat 295  ARG295      0.5346
     75  NH1      161.9510  201.8290  144.9690 N.pl3 295  ARG295      0.1354
     76  NH2      160.2100  203.1930  144.3800 N.pl3 295  ARG295      0.1354
     77  N        168.4430  198.5280  140.4760 N.3   298  ASN298     -0.1225
     78  CA       168.9380  199.0900  141.7290 C.3   298  ASN298      0.1785
     79  C        169.4490  197.9850  142.6520 C.2   298  ASN298      0.2597
     80  O        170.5850  198.0420  143.1480 O.2   298  ASN298     -0.2718
     81  CB       167.8280  199.8950  142.4030 C.3   298  ASN298      0.1169
     82  CG       168.3380  200.7810  143.5240 C.2   298  ASN298      0.2627
     83  OD1      169.5360  200.8410  143.7970 O.2   298  ASN298     -0.2716
     84  ND2      167.4200  201.4770  144.1840 N.am  298  ASN298     -0.0877
     85  N        168.6440  196.9370  142.8400 N.am  299  LYS299     -0.1980
     86  CA       169.0660  195.8330  143.6960 C.3   299  LYS299      0.1596
     87  C        170.1990  195.0270  143.0640 C.2   299  LYS299      0.2287
     88  O        171.0720  194.5150  143.7760 O.2   299  LYS299     -0.2864
     89  CB       167.8610  194.9600  144.0160 C.3   299  LYS299      0.0298
     90  CG       168.1090  193.7320  144.8630 C.3   299  LYS299      0.0038
     91  CD       168.4040  194.0370  146.3150 C.3   299  LYS299      0.0206
     92  CE       168.4740  192.7360  147.1120 C.3   299  LYS299      0.1093
     93  NZ       168.8340  192.9190  148.5380 N.3   299  LYS299     -0.1314
@<TRIPOS>BOND
     1    57    58    1
     2    58    59    1
     3    58    61    1
     4    59    60    2
     5    61    62    1
     6    62    63    1
     7    66    67    1
     8    77    78    1
     9    63    64    1
    10    51    50    2
    11    68    67    1
    12    68    69    2
    13    67    70    1
    14    64    65    1
    15    50    49    1
    16    78    81    1
    17    78    79    1
    18    70    71    1
    19    55    54   ar
    20    71    72    1
    21    81    82    1
    22    52    49    1
    23    52    53    1
    24    79    85   am
    25    79    80    2
    26    49    48    1
    27    39    37    1
    28    85    86    1
    29    87    86    1
    30    87    88    2
    31    72    73    1
    32    48    42   am
    33    54    53    1
    34    54    56   ar
    35    73    74    2
    36    82    83    2
    37    82    84   am
    38    86    89    1
    39    37    36    1
    40    40    41    1
    41    38    36    1
    42    89    90    1
    43    36    33    1
    44    74    76    1
    45    74    75    1
    46    46    45    2
    47    42    41    1
    48    42    43    2
    49    90    91    1
    50    41    44    1
    51    33    34    1
    52    33    32    1
    53    45    44    1
    54    45    47   am
    55    34    35    2
    56    91    92    1
    57    32    30   am
    58    92    93    1
    59    31    30    2
    60    30    29    1
    61    29    28    1
    62    13    12    2
    63    22    21    2
    64    10    11    1
    65    18    16   ar
    66    28    21   am
    67    21    20    1
    68    12    11    1
    69    12    19   am
    70    11    14    1
    71    17    16   ar
    72    16    15    1
    73    19    20    1
    74    20    23    1
    75    15    14    1
    76     2     3    1
    77     2     5    1
    78     2     1    1
    79     6     7    1
    80     6     5    1
    81     3     4    2
    82    23    24    1
    83     7     8    1
    84    24    25    1
    85    26    25   ar
    86    25    27   ar
    87     8     9    1
