@<TRIPOS>MOLECULE
tmp/6nr2C00.pdb
 107 102 0 0 0
SMALL
GASTEIGER

@<TRIPOS>ATOM
      1  N        143.1940  165.7490  148.0140 N.3   479  GLN479     -0.1245
      2  CA       143.9740  165.3450  149.1770 C.3   479  GLN479      0.1566
      3  C        145.2070  166.2180  149.3420 C.2   479  GLN479      0.2260
      4  O        145.5350  166.6400  150.4580 O.2   479  GLN479     -0.2867
      5  CB       144.3690  163.8810  149.0650 C.3   479  GLN479      0.0367
      6  CG       143.2220  162.9590  149.2830 C.3   479  GLN479      0.0905
      7  CD       142.7370  163.0270  150.7010 C.2   479  GLN479      0.2608
      8  OE1      143.5290  163.1400  151.6320 O.2   479  GLN479     -0.2717
      9  NE2      141.4320  162.9550  150.8810 N.am  479  GLN479     -0.0878
     10  N        145.7720  168.7160  152.5060 N.3   483  SER483     -0.1217
     11  CA       146.9350  168.5580  153.3640 C.3   483  SER483      0.1889
     12  C        147.8050  169.8080  153.3590 C.2   483  SER483      0.2288
     13  O        148.3410  170.2080  154.3990 O.2   483  SER483     -0.2866
     14  CB       147.7210  167.3270  152.9340 C.3   483  SER483      0.2089
     15  OG       148.8550  167.1480  153.7530 O.3   483  SER483     -0.2183
     16  N        146.2500  172.1160  155.5840 N.3   486  TRP486     -0.1227
     17  CA       146.5270  171.7400  156.9680 C.3   486  TRP486      0.1737
     18  C        147.8990  172.2200  157.4110 C.2   486  TRP486      0.2595
     19  O        148.0940  172.5630  158.5810 O.2   486  TRP486     -0.2718
     20  CB       146.4210  170.2260  157.1210 C.3   486  TRP486      0.0564
     21  CG       146.8920  169.6720  158.4290 C.ar  486  TRP486      0.0003
     22  CD1      148.0870  169.0810  158.6660 C.ar  486  TRP486      0.0946
     23  CD2      146.1700  169.6190  159.6580 C.ar  486  TRP486      0.0152
     24  NE1      148.1690  168.6760  159.9660 N.ar  486  TRP486     -0.2442
     25  CE2      147.0030  168.9960  160.6000 C.ar  486  TRP486      0.0810
     26  CE3      144.9090  170.0460  160.0560 C.ar  486  TRP486      0.0012
     27  CZ2      146.6170  168.7880  161.9130 C.ar  486  TRP486      0.0191
     28  CZ3      144.5250  169.8370  161.3630 C.ar  486  TRP486      0.0001
     29  CH2      145.3760  169.2180  162.2760 C.ar  486  TRP486      0.0015
     30  N        148.8640  172.2520  156.4940 N.am  487  TYR487     -0.1976
     31  CA       150.1650  172.7900  156.8610 C.3   487  TYR487      0.1639
     32  C        150.2600  174.2900  156.6620 C.2   487  TYR487      0.2290
     33  O        151.0750  174.9320  157.3270 O.2   487  TYR487     -0.2864
     34  CB       151.2760  172.0890  156.0900 C.3   487  TYR487      0.0560
     35  CG       151.7290  170.8040  156.7290 C.ar  487  TYR487     -0.0198
     36  CD1      151.4680  170.5470  158.0630 C.ar  487  TYR487     -0.0009
     37  CD2      152.4260  169.8540  156.0010 C.ar  487  TYR487     -0.0009
     38  CE1      151.8900  169.3860  158.6520 C.ar  487  TYR487      0.0417
     39  CE2      152.8440  168.6880  156.5800 C.ar  487  TYR487      0.0417
     40  CZ       152.5700  168.4590  157.9030 C.ar  487  TYR487      0.1957
     41  OH       152.9930  167.2910  158.4810 O.3   487  TYR487     -0.2866
     42  N        155.8060  171.7720  153.1490 N.3   492  ARG492     -0.1245
     43  CA       155.8350  170.3650  153.4950 C.3   492  ARG492      0.1563
     44  C        157.2750  169.8600  153.4950 C.2   492  ARG492      0.2260
     45  O        158.2320  170.6300  153.3610 O.2   492  ARG492     -0.2867
     46  CB       154.9650  169.5850  152.5180 C.3   492  ARG492      0.0307
     47  CG       153.5320  170.0410  152.5310 C.3   492  ARG492      0.0489
     48  CD       152.7130  169.3830  151.4410 C.3   492  ARG492      0.2205
     49  NE       152.6230  167.9390  151.6020 N.pl3 492  ARG492     -0.0865
     50  CZ       151.7520  167.3400  152.4030 C.cat 492  ARG492      0.5346
     51  NH1      150.9270  168.0730  153.1290 N.pl3 492  ARG492      0.1354
     52  NH2      151.7190  166.0200  152.4940 N.pl3 492  ARG492      0.1354
     53  N        158.6620  166.2880  161.7460 N.3   496  ASN496     -0.1240
     54  CA       157.7010  166.7500  162.7390 C.3   496  ASN496      0.1653
     55  C        158.3960  167.1730  164.0260 C.2   496  ASN496      0.2266
     56  O        157.9790  168.1420  164.6760 O.2   496  ASN496     -0.2867
     57  CB       156.6710  165.6600  163.0010 C.3   496  ASN496      0.1155
     58  CG       155.8500  165.3450  161.7720 C.2   496  ASN496      0.2627
     59  OD1      155.5020  166.2380  161.0050 O.2   496  ASN496     -0.2716
     60  ND2      155.5370  164.0720  161.5760 N.am  496  ASN496     -0.0877
     61  N        148.4490  173.2490  162.3320 N.3   533  PHE533     -0.1241
     62  CA       149.1550  172.1240  162.9420 C.3   533  PHE533      0.1605
     63  C        149.8910  172.5460  164.2020 C.2   533  PHE533      0.2264
     64  O        149.8350  171.8590  165.2330 O.2   533  PHE533     -0.2867
     65  CB       150.1300  171.5280  161.9360 C.3   533  PHE533      0.0534
     66  CG       150.9830  170.4430  162.4960 C.ar  533  PHE533     -0.0203
     67  CD1      150.4390  169.2120  162.7990 C.ar  533  PHE533     -0.0042
     68  CD2      152.3340  170.6420  162.6900 C.ar  533  PHE533     -0.0042
     69  CE1      151.2260  168.2020  163.3060 C.ar  533  PHE533     -0.0003
     70  CE2      153.1240  169.6380  163.1920 C.ar  533  PHE533     -0.0003
     71  CZ       152.5690  168.4170  163.5030 C.ar  533  PHE533     -0.0000
     72  N        147.2500  173.1680  166.8790 N.3   536  PHE536     -0.1241
     73  CA       146.7450  171.9450  167.4780 C.3   536  PHE536      0.1605
     74  C        147.7810  171.3480  168.4100 C.2   536  PHE536      0.2264
     75  O        147.4590  170.8990  169.5070 O.2   536  PHE536     -0.2867
     76  CB       146.3640  170.9240  166.4110 C.3   536  PHE536      0.0534
     77  CG       146.0860  169.5600  166.9640 C.ar  536  PHE536     -0.0203
     78  CD1      144.9070  169.3030  167.6370 C.ar  536  PHE536     -0.0042
     79  CD2      147.0060  168.5410  166.8210 C.ar  536  PHE536     -0.0042
     80  CE1      144.6470  168.0480  168.1530 C.ar  536  PHE536     -0.0003
     81  CE2      146.7540  167.2830  167.3330 C.ar  536  PHE536     -0.0003
     82  CZ       145.5730  167.0370  168.0000 C.ar  536  PHE536     -0.0000
     83  N        143.8390  160.6120  167.0570 N.3   647  SER647     -0.1217
     84  CA       145.1110  160.9810  166.4480 C.3   647  SER647      0.1889
     85  C        145.9190  159.7510  166.0620 C.2   647  SER647      0.2288
     86  O        146.5590  159.7290  165.0050 O.2   647  SER647     -0.2866
     87  CB       145.9150  161.8570  167.3970 C.3   647  SER647      0.2089
     88  OG       146.3940  161.0840  168.4730 O.3   647  SER647     -0.2183
     89  N        144.0440  157.7390  163.1740 N.3   650  LEU650     -0.1245
     90  CA       143.9420  158.4350  161.9010 C.3   650  LEU650      0.1561
     91  C        144.8360  157.7370  160.8870 C.2   650  LEU650      0.2260
     92  O        146.0420  157.5870  161.0960 O.2   650  LEU650     -0.2867
     93  CB       144.3370  159.8960  162.0590 C.3   650  LEU650      0.0270
     94  CG       144.1180  160.8190  160.8620 C.3   650  LEU650      0.0019
     95  CD1      142.6490  161.0050  160.5960 C.3   650  LEU650      0.0001
     96  CD2      144.7910  162.1600  161.0860 C.3   650  LEU650      0.0001
     97  N        138.3810  160.7540  156.7200 N.3   752  ARG752     -0.1245
     98  CA       139.5400  161.5300  157.1550 C.3   752  ARG752      0.1563
     99  C        139.4510  162.9670  156.6660 C.2   752  ARG752      0.2260
    100  O        139.7520  163.9090  157.4140 O.2   752  ARG752     -0.2867
    101  CB       140.8200  160.8450  156.6700 C.3   752  ARG752      0.0307
    102  CG       142.1010  161.6430  156.8030 C.3   752  ARG752      0.0489
    103  CD       142.5430  162.1410  155.4340 C.3   752  ARG752      0.2205
    104  NE       143.7390  162.9650  155.4990 N.pl3 752  ARG752     -0.0865
    105  CZ       144.9730  162.4870  155.4730 C.cat 752  ARG752      0.5346
    106  NH1      145.1760  161.1800  155.3910 N.pl3 752  ARG752      0.1354
    107  NH2      146.0020  163.3200  155.5350 N.pl3 752  ARG752      0.1354
@<TRIPOS>BOND
     1     1     2    1
     2     5     2    1
     3     5     6    1
     4     2     3    1
     5     6     7    1
     6     3     4    2
     7     7     9   am
     8     7     8    2
     9    48    49    1
    10    48    47    1
    11    49    50    2
    12    50    52    1
    13    50    51    1
    14    10    11    1
    15    46    47    1
    16    46    43    1
    17    14    11    1
    18    14    15    1
    19    42    43    1
    20    12    11    1
    21    12    13    2
    22    45    44    2
    23    44    43    1
    24   106   105    1
    25   103   104    1
    26   103   102    1
    27   105   104    2
    28   105   107    1
    29    16    17    1
    30    37    39   ar
    31    37    35   ar
    32    34    35    1
    33    34    31    1
    34    30    31    1
    35    30    18   am
    36    39    40   ar
    37    32    31    1
    38    32    33    2
    39    99    98    1
    40    99   100    2
    41   101   102    1
    42   101    98    1
    43    97    98    1
    44    35    36   ar
    45    17    20    1
    46    17    18    1
    47    20    21    1
    48    18    19    2
    49    40    41    1
    50    40    38   ar
    51    36    38   ar
    52    21    22   ar
    53    21    23   ar
    54    22    24   ar
    55    23    26   ar
    56    23    25   ar
    57    24    25   ar
    58    26    28   ar
    59    95    94    1
    60    25    27   ar
    61    94    96    1
    62    94    93    1
    63    91    92    2
    64    91    90    1
    65    59    58    2
    66    28    29   ar
    67    60    58   am
    68    53    54    1
    69    58    57    1
    70    90    93    1
    71    90    89    1
    72    27    29   ar
    73    65    66    1
    74    65    62    1
    75    61    62    1
    76    66    68   ar
    77    66    67   ar
    78    68    70   ar
    79    54    57    1
    80    54    55    1
    81    67    69   ar
    82    62    63    1
    83    70    71   ar
    84    69    71   ar
    85    55    56    2
    86    63    64    2
    87    86    85    2
    88    85    84    1
    89    76    77    1
    90    76    73    1
    91    84    83    1
    92    84    87    1
    93    79    77   ar
    94    79    81   ar
    95    72    73    1
    96    77    78   ar
    97    81    82   ar
    98    87    88    1
    99    73    74    1
   100    78    80   ar
   101    82    80   ar
   102    74    75    2
