@<TRIPOS>MOLECULE
tmp/6nr2C01.pdb
 175 166 0 0 0
SMALL
GASTEIGER

@<TRIPOS>ATOM
      1  N        147.2500  173.1680  166.8790 N.3   536  PHE536     -0.1241
      2  CA       146.7450  171.9450  167.4780 C.3   536  PHE536      0.1605
      3  C        147.7810  171.3480  168.4100 C.2   536  PHE536      0.2264
      4  O        147.4590  170.8990  169.5070 O.2   536  PHE536     -0.2867
      5  CB       146.3640  170.9240  166.4110 C.3   536  PHE536      0.0534
      6  CG       146.0860  169.5600  166.9640 C.ar  536  PHE536     -0.0203
      7  CD1      144.9070  169.3030  167.6370 C.ar  536  PHE536     -0.0042
      8  CD2      147.0060  168.5410  166.8210 C.ar  536  PHE536     -0.0042
      9  CE1      144.6470  168.0480  168.1530 C.ar  536  PHE536     -0.0003
     10  CE2      146.7540  167.2830  167.3330 C.ar  536  PHE536     -0.0003
     11  CZ       145.5730  167.0370  168.0000 C.ar  536  PHE536     -0.0000
     12  N        147.9250  173.4060  171.4950 N.3   539  ASN539     -0.1225
     13  CA       146.7710  173.1870  172.3470 C.3   539  ASN539      0.1785
     14  C        146.9330  171.9370  173.1860 C.2   539  ASN539      0.2597
     15  O        146.6500  171.9490  174.3790 O.2   539  ASN539     -0.2718
     16  CB       145.5030  173.0700  171.5070 C.3   539  ASN539      0.1169
     17  CG       145.0660  174.3940  170.9250 C.2   539  ASN539      0.2627
     18  OD1      145.1420  175.4290  171.5860 O.2   539  ASN539     -0.2716
     19  ND2      144.5990  174.3700  169.6840 N.am  539  ASN539     -0.0877
     20  N        147.4130  170.8630  172.5730 N.am  540  VAL540     -0.1980
     21  CA       147.5950  169.6270  173.3140 C.3   540  VAL540      0.1595
     22  C        148.6270  169.8170  174.4130 C.2   540  VAL540      0.2287
     23  O        148.4360  169.3650  175.5400 O.2   540  VAL540     -0.2864
     24  CB       148.0250  168.4740  172.3960 C.3   540  VAL540      0.0276
     25  CG1      148.4380  167.2700  173.2250 C.3   540  VAL540      0.0022
     26  CG2      146.8980  168.1110  171.4480 C.3   540  VAL540      0.0022
     27  N        147.1550  171.9890  177.0030 N.3   543  TYR543     -0.1241
     28  CA       146.1330  171.2460  177.7270 C.3   543  TYR543      0.1605
     29  C        146.7460  170.3450  178.7930 C.2   543  TYR543      0.2264
     30  O        146.2170  170.2300  179.8980 O.2   543  TYR543     -0.2867
     31  CB       145.2910  170.4150  176.7570 C.3   543  TYR543      0.0534
     32  CG       143.9790  169.9380  177.3370 C.ar  543  TYR543     -0.0201
     33  CD1      142.7990  170.6250  177.0880 C.ar  543  TYR543     -0.0009
     34  CD2      143.9210  168.8030  178.1320 C.ar  543  TYR543     -0.0009
     35  CE1      141.5970  170.1940  177.6140 C.ar  543  TYR543      0.0417
     36  CE2      142.7230  168.3640  178.6630 C.ar  543  TYR543      0.0417
     37  CZ       141.5650  169.0640  178.4010 C.ar  543  TYR543      0.1957
     38  OH       140.3700  168.6310  178.9280 O.3   543  TYR543     -0.2866
     39  N        137.3440  178.0650  177.9930 N.3   576  LEU576     -0.1245
     40  CA       136.7370  176.8630  177.4200 C.3   576  LEU576      0.1561
     41  C        135.2380  177.0310  177.1880 C.2   576  LEU576      0.2260
     42  O        134.7120  176.5810  176.1640 O.2   576  LEU576     -0.2867
     43  CB       136.9950  175.6580  178.3210 C.3   576  LEU576      0.0270
     44  CG       138.3300  174.9350  178.2680 C.3   576  LEU576      0.0019
     45  CD1      138.4070  173.9350  179.3950 C.3   576  LEU576      0.0001
     46  CD2      138.4090  174.2200  176.9420 C.3   576  LEU576      0.0001
     47  N        134.5990  179.0670  174.1380 N.3   579  ASP579     -0.1225
     48  CA       134.8330  178.2800  172.9280 C.3   579  ASP579      0.1805
     49  C        133.6830  177.3080  172.6640 C.2   579  ASP579      0.2597
     50  O        133.2820  177.1000  171.5080 O.2   579  ASP579     -0.2718
     51  CB       136.1590  177.5320  173.0500 C.3   579  ASP579      0.1424
     52  CG       136.6880  177.0550  171.7140 C.2   579  ASP579      0.3668
     53  OD1      136.0450  177.3140  170.6770 O.co2 579  ASP579     -0.2456
     54  OD2      137.7640  176.4210  171.7020 O.co2 579  ASP579     -0.2456
     55  N        133.1140  176.7360  173.7300 N.am  580  GLU580     -0.1979
     56  CA       131.9930  175.8110  173.5690 C.3   580  GLU580      0.1602
     57  C        130.7420  176.5240  173.0690 C.2   580  GLU580      0.2287
     58  O        130.0160  175.9930  172.2180 O.2   580  GLU580     -0.2864
     59  CB       131.7070  175.0960  174.8880 C.3   580  GLU580      0.0415
     60  CG       132.7830  174.1150  175.3100 C.3   580  GLU580      0.1163
     61  CD       132.8680  172.9120  174.3980 C.2   580  GLU580      0.3649
     62  OE1      131.8230  172.4980  173.8650 O.co2 580  GLU580     -0.2457
     63  OE2      133.9810  172.3780  174.2110 O.co2 580  GLU580     -0.2457
     64  N        131.1560  177.1630  169.4060 N.3   583  GLN583     -0.1245
     65  CA       130.9260  176.0240  168.5220 C.3   583  GLN583      0.1566
     66  C        129.4460  175.6430  168.4880 C.2   583  GLN583      0.2260
     67  O        128.9550  175.1430  167.4620 O.2   583  GLN583     -0.2867
     68  CB       131.8010  174.8440  168.9320 C.3   583  GLN583      0.0367
     69  CG       131.7820  173.7200  167.9150 C.3   583  GLN583      0.0905
     70  CD       132.7390  172.6090  168.2340 C.2   583  GLN583      0.2608
     71  OE1      133.4790  172.6700  169.2140 O.2   583  GLN583     -0.2717
     72  NE2      132.7240  171.5700  167.4100 N.am  583  GLN583     -0.0878
     73  N        127.1500  164.1610  168.3530 N.3   594  ASP594     -0.1239
     74  CA       128.2390  163.3890  168.9420 C.3   594  ASP594      0.1674
     75  C        128.1210  163.3790  170.4610 C.2   594  ASP594      0.2266
     76  O        128.0010  164.4360  171.0880 O.2   594  ASP594     -0.2867
     77  CB       129.5890  163.9710  168.5260 C.3   594  ASP594      0.1410
     78  CG       130.7600  163.0420  168.7460 C.2   594  ASP594      0.3668
     79  OD1      130.6120  161.8990  169.1480 O.co2 594  ASP594     -0.2456
     80  OD2      131.8790  163.4120  168.3830 O.co2 594  ASP594     -0.2456
     81  N        138.4700  163.2670  178.1310 N.3   639  ARG639     -0.1231
     82  CA       138.4350  164.1200  176.9540 C.3   639  ARG639      0.1694
     83  C        139.7480  164.0410  176.2050 C.2   639  ARG639      0.2591
     84  O        139.7590  163.7530  174.9970 O.2   639  ARG639     -0.2718
     85  CB       138.1470  165.5600  177.3630 C.3   639  ARG639      0.0321
     86  CG       138.0370  166.5000  176.1910 C.3   639  ARG639      0.0489
     87  CD       136.8040  166.1640  175.3780 C.3   639  ARG639      0.2205
     88  NE       136.6230  167.0660  174.2500 N.pl3 639  ARG639     -0.0865
     89  CZ       137.1620  166.8690  173.0550 C.cat 639  ARG639      0.5346
     90  NH1      136.9510  167.7360  172.0790 N.pl3 639  ARG639      0.1354
     91  NH2      137.9100  165.7990  172.8390 N.pl3 639  ARG639      0.1354
     92  N        140.8560  164.1200  176.9560 N.am  640  LEU640     -0.1980
     93  CA       142.1870  164.0510  176.3680 C.3   640  LEU640      0.1596
     94  C        142.3990  162.7300  175.6600 C.2   640  LEU640      0.2287
     95  O        142.8980  162.7080  174.5240 O.2   640  LEU640     -0.2864
     96  CB       143.2510  164.2410  177.4460 C.3   640  LEU640      0.0297
     97  CG       144.6880  164.1940  176.9440 C.3   640  LEU640      0.0022
     98  CD1      144.8980  165.3090  175.9610 C.3   640  LEU640      0.0001
     99  CD2      145.6670  164.2980  178.0880 C.3   640  LEU640      0.0001
    100  N        140.3190  160.7960  174.2250 N.3   642  HIS642     -0.1226
    101  CA       139.5940  160.6860  172.9650 C.3   642  HIS642      0.1752
    102  C        140.3860  161.2910  171.8270 C.2   642  HIS642      0.2595
    103  O        140.4350  160.7120  170.7320 O.2   642  HIS642     -0.2718
    104  CB       138.2240  161.3440  173.0360 C.3   642  HIS642      0.0759
    105  CG       137.5260  161.3800  171.7130 C.ar  642  HIS642      0.0818
    106  ND1      137.0120  160.2550  171.1120 N.ar  642  HIS642     -0.2268
    107  CD2      137.2920  162.4030  170.8570 C.ar  642  HIS642      0.1154
    108  CE1      136.4750  160.5830  169.9510 C.ar  642  HIS642      0.1986
    109  NE2      136.6300  161.8810  169.7740 N.ar  642  HIS642     -0.2212
    110  N        141.1130  162.3800  172.1140 N.am  643  ILE643     -0.1980
    111  CA       141.9240  163.0350  171.0980 C.3   643  ILE643      0.1595
    112  C        143.0060  162.0910  170.6080 C.2   643  ILE643      0.2287
    113  O        143.2010  161.9290  169.3930 O.2   643  ILE643     -0.2864
    114  CB       142.5200  164.3360  171.6490 C.3   643  ILE643      0.0276
    115  CG1      141.4030  165.2620  172.1070 C.3   643  ILE643      0.0022
    116  CG2      143.3150  165.0260  170.5770 C.3   643  ILE643      0.0022
    117  CD1      141.8900  166.4440  172.9050 C.3   643  ILE643      0.0001
    118  N        141.7140  159.4880  168.3170 N.3   646  VAL646     -0.1245
    119  CA       141.5010  159.9510  166.9550 C.3   646  VAL646      0.1561
    120  C        142.8430  160.1840  166.2810 C.2   646  VAL646      0.2260
    121  O        143.0120  159.9310  165.0830 O.2   646  VAL646     -0.2867
    122  CB       140.6120  161.2060  166.9520 C.3   646  VAL646      0.0252
    123  CG1      140.3790  161.7130  165.5450 C.3   646  VAL646      0.0019
    124  CG2      139.2880  160.8900  167.6060 C.3   646  VAL646      0.0019
    125  N        136.8760  164.8720  158.7770 N.3   755  LEU755     -0.1245
    126  CA       137.3590  165.2540  160.1030 C.3   755  LEU755      0.1561
    127  C        138.3670  166.3970  160.0410 C.2   755  LEU755      0.2260
    128  O        138.3130  167.3160  160.8720 O.2   755  LEU755     -0.2867
    129  CB       137.9700  164.0600  160.8230 C.3   755  LEU755      0.0270
    130  CG       136.9310  163.0680  161.3100 C.3   755  LEU755      0.0019
    131  CD1      137.6050  161.8800  161.9430 C.3   755  LEU755      0.0001
    132  CD2      136.0210  163.7570  162.3000 C.3   755  LEU755      0.0001
    133  N        136.4930  169.5990  159.1690 N.3   758  GLU758     -0.1231
    134  CA       135.7220  170.0520  160.3200 C.3   758  GLU758      0.1699
    135  C        136.6220  170.7080  161.3560 C.2   758  GLU758      0.2592
    136  O        136.2310  171.6990  161.9860 O.2   758  GLU758     -0.2718
    137  CB       134.9530  168.8880  160.9380 C.3   758  GLU758      0.0402
    138  CG       134.0630  169.2910  162.1010 C.3   758  GLU758      0.1161
    139  CD       133.2910  168.1270  162.6780 C.2   758  GLU758      0.3649
    140  OE1      133.4290  167.0040  162.1550 O.co2 758  GLU758     -0.2457
    141  OE2      132.5530  168.3320  163.6630 O.co2 758  GLU758     -0.2457
    142  N        137.8400  170.1960  161.5350 N.am  759  TYR759     -0.1976
    143  CA       138.7100  170.8110  162.5320 C.3   759  TYR759      0.1639
    144  C        139.2900  172.1310  162.0330 C.2   759  TYR759      0.2290
    145  O        139.5960  173.0180  162.8380 O.2   759  TYR759     -0.2864
    146  CB       139.8270  169.8580  162.9460 C.3   759  TYR759      0.0560
    147  CG       140.6580  170.4280  164.0670 C.ar  759  TYR759     -0.0198
    148  CD1      140.1680  170.4550  165.3610 C.ar  759  TYR759     -0.0009
    149  CD2      141.9120  170.9720  163.8260 C.ar  759  TYR759     -0.0009
    150  CE1      140.9100  170.9880  166.3910 C.ar  759  TYR759      0.0417
    151  CE2      142.6610  171.5140  164.8480 C.ar  759  TYR759      0.0417
    152  CZ       142.1550  171.5170  166.1280 C.ar  759  TYR759      0.1957
    153  OH       142.9000  172.0500  167.1520 O.3   759  TYR759     -0.2866
    154  N        137.6120  175.9040  162.9710 N.3   762  ARG762     -0.1245
    155  CA       137.6310  176.6250  164.2380 C.3   762  ARG762      0.1563
    156  C        138.5400  177.8480  164.1700 C.2   762  ARG762      0.2260
    157  O        139.0560  178.2160  163.1110 O.2   762  ARG762     -0.2867
    158  CB       138.0880  175.7310  165.3880 C.3   762  ARG762      0.0307
    159  CG       137.0510  174.7720  165.9270 C.3   762  ARG762      0.0489
    160  CD       137.6280  174.0580  167.1330 C.3   762  ARG762      0.2205
    161  NE       136.6820  173.1720  167.7970 N.pl3 762  ARG762     -0.0865
    162  CZ       136.5120  171.8960  167.4780 C.cat 762  ARG762      0.5346
    163  NH1      137.2110  171.3600  166.4870 N.pl3 762  ARG762      0.1354
    164  NH2      135.6430  171.1540  168.1440 N.pl3 762  ARG762      0.1354
    165  N        145.3020  178.3260  172.3040 N.3   767  PHE767     -0.1241
    166  CA       144.3330  178.2220  173.4080 C.3   767  PHE767      0.1605
    167  C        144.3120  179.3730  174.4160 C.2   767  PHE767      0.2264
    168  O        143.2690  180.0380  174.5000 O.2   767  PHE767     -0.2867
    169  CB       144.5520  176.8750  174.1160 C.3   767  PHE767      0.0534
    170  CG       143.5790  176.6010  175.2130 C.ar  767  PHE767     -0.0203
    171  CD1      142.2900  176.2220  174.9130 C.ar  767  PHE767     -0.0042
    172  CD2      143.9590  176.6950  176.5410 C.ar  767  PHE767     -0.0042
    173  CE1      141.3940  175.9540  175.9130 C.ar  767  PHE767     -0.0003
    174  CE2      143.0670  176.4250  177.5510 C.ar  767  PHE767     -0.0003
    175  CZ       141.7810  176.0550  177.2360 C.ar  767  PHE767     -0.0000
@<TRIPOS>BOND
     1   125   126    1
     2   133   134    1
     3   127   126    1
     4   127   128    2
     5   126   129    1
     6   134   137    1
     7   134   135    1
     8   129   130    1
     9   137   138    1
    10   130   131    1
    11   130   132    1
    12   135   142   am
    13   135   136    2
    14   142   143    1
    15   144   143    1
    16   144   145    2
    17   138   139    1
    18   140   139   ar
    19   143   146    1
    20   139   141   ar
    21   146   147    1
    22   154   155    1
    23   157   156    2
    24   149   147   ar
    25   149   151   ar
    26   147   148   ar
    27   156   155    1
    28   155   158    1
    29   151   152   ar
    30   121   120    2
    31   148   150   ar
    32   158   159    1
    33   123   122    1
    34   159   160    1
    35   152   150   ar
    36   152   153    1
    37   120   119    1
    38     5     6    1
    39     5     2    1
    40   163   162    1
    41     8     6   ar
    42     8    10   ar
    43     1     2    1
    44   122   119    1
    45   122   124    1
    46   119   118    1
    47     6     7   ar
    48   160   161    1
    49    10    11   ar
    50    72    70   am
    51    67    66    2
    52     2     3    1
    53   162   161    2
    54   162   164    1
    55     7     9   ar
    56    69    70    1
    57    69    68    1
    58    11     9   ar
    59    70    71    2
    60    73    74    1
    61    80    78   ar
    62     3     4    2
    63    66    65    1
    64    65    68    1
    65    65    64    1
    66    77    78    1
    67    77    74    1
    68    78    79   ar
    69    74    75    1
    70   113   112    2
    71    19    17   am
    72   109   108   ar
    73   109   107   ar
    74   108   106   ar
    75    75    76    2
    76   116   114    1
    77   112   111    1
    78    53    52   ar
    79   103   102    2
    80   107   105   ar
    81    17    16    1
    82    17    18    2
    83   111   114    1
    84   111   110    1
    85   106   105   ar
    86    26    24    1
    87    12    13    1
    88    16    13    1
    89    50    49    2
    90   114   115    1
    91    54    52   ar
    92   105   104    1
    93    52    51    1
    94   102   110   am
    95   102   101    1
    96    90    89    1
    97   115   117    1
    98    58    57    2
    99   165   166    1
   100    13    14    1
   101    24    25    1
   102    24    21    1
   103    20    14   am
   104    20    21    1
   105    49    48    1
   106    49    55   am
   107    91    89    1
   108    48    51    1
   109    48    47    1
   110   101   104    1
   111   101   100    1
   112    89    88    2
   113    57    56    1
   114    14    15    2
   115    21    22    1
   116   166   169    1
   117   166   167    1
   118    56    55    1
   119    56    59    1
   120    62    61   ar
   121   169   170    1
   122    63    61   ar
   123    88    87    1
   124    61    60    1
   125    22    23    2
   126   167   168    2
   127    95    94    2
   128    59    60    1
   129   171   170   ar
   130   171   173   ar
   131    84    83    2
   132   170   172   ar
   133    87    86    1
   134    94    93    1
   135   173   175   ar
   136    98    97    1
   137    42    41    2
   138    86    85    1
   139    83    82    1
   140    83    92   am
   141    93    92    1
   142    93    96    1
   143   172   174   ar
   144    31    32    1
   145    31    28    1
   146    46    44    1
   147    97    96    1
   148    97    99    1
   149    82    85    1
   150    82    81    1
   151    27    28    1
   152    33    32   ar
   153    33    35   ar
   154    41    40    1
   155   175   174   ar
   156    32    34   ar
   157    40    39    1
   158    40    43    1
   159    35    37   ar
   160    28    29    1
   161    34    36   ar
   162    44    43    1
   163    44    45    1
   164    37    36   ar
   165    37    38    1
   166    29    30    2
