@<TRIPOS>MOLECULE
tmp/6nr3D01.pdb
 205 201 0 0 0
SMALL
GASTEIGER

@<TRIPOS>ATOM
      1  N        129.6190  106.9940  153.4640 N.3   492  SER492     -0.1217
      2  CA       128.4040  107.1050  154.2620 C.3   492  SER492      0.1889
      3  C        127.5660  105.8410  154.1870 C.2   492  SER492      0.2288
      4  O        127.0900  105.3370  155.2090 O.2   492  SER492     -0.2866
      5  CB       127.5810  108.2930  153.7940 C.3   492  SER492      0.2089
      6  OG       126.3800  108.3780  154.5270 O.3   492  SER492     -0.2183
      7  N        129.0070  103.3120  156.1690 N.3   495  TRP495     -0.1227
      8  CA       128.8140  103.5930  157.5880 C.3   495  TRP495      0.1737
      9  C        127.4670  103.0900  158.0780 C.2   495  TRP495      0.2595
     10  O        127.3780  102.4860  159.1480 O.2   495  TRP495     -0.2718
     11  CB       128.9640  105.0890  157.8240 C.3   495  TRP495      0.0564
     12  CG       128.5910  105.5990  159.1540 C.ar  495  TRP495      0.0003
     13  CD1      127.5190  106.3670  159.4460 C.ar  495  TRP495      0.0946
     14  CD2      129.2920  105.4060  160.3790 C.ar  495  TRP495      0.0152
     15  NE1      127.5020  106.6740  160.7760 N.ar  495  TRP495     -0.2442
     16  CE2      128.5800  106.0850  161.3720 C.ar  495  TRP495      0.0810
     17  CE3      130.4460  104.7150  160.7350 C.ar  495  TRP495      0.0012
     18  CZ2      128.9830  106.1020  162.6930 C.ar  495  TRP495      0.0191
     19  CZ3      130.8420  104.7320  162.0470 C.ar  495  TRP495      0.0001
     20  CH2      130.1160  105.4210  163.0100 C.ar  495  TRP495      0.0015
     21  N        126.4030  103.3340  157.3190 N.am  496  TYR496     -0.1976
     22  CA       125.0910  102.8790  157.7690 C.3   496  TYR496      0.1639
     23  C        124.8890  101.3890  157.5790 C.2   496  TYR496      0.2290
     24  O        124.1200  100.7780  158.3190 O.2   496  TYR496     -0.2864
     25  CB       123.9820  103.6340  157.0580 C.3   496  TYR496      0.0560
     26  CG       123.7240  104.9990  157.6210 C.ar  496  TYR496     -0.0198
     27  CD1      124.2730  105.3870  158.8240 C.ar  496  TYR496     -0.0009
     28  CD2      122.9010  105.8820  156.9680 C.ar  496  TYR496     -0.0009
     29  CE1      124.0300  106.6290  159.3440 C.ar  496  TYR496      0.0417
     30  CE2      122.6480  107.1210  157.4850 C.ar  496  TYR496      0.0417
     31  CZ       123.2140  107.4860  158.6730 C.ar  496  TYR496      0.1957
     32  OH       122.9690  108.7280  159.1920 O.3   496  TYR496     -0.2866
     33  N        118.8590  104.4270  154.1030 N.3   501  ARG501     -0.1245
     34  CA       118.7620  105.8330  154.4770 C.3   501  ARG501      0.1563
     35  C        117.3140  106.3330  154.3050 C.2   501  ARG501      0.2260
     36  O        116.3830  105.5270  154.2020 O.2   501  ARG501     -0.2867
     37  CB       119.7640  106.6570  153.6750 C.3   501  ARG501      0.0307
     38  CG       121.1190  105.9730  153.5800 C.3   501  ARG501      0.0489
     39  CD       122.0440  106.6350  152.5760 C.3   501  ARG501      0.2205
     40  NE       122.8000  107.7320  153.1670 N.pl3 501  ARG501     -0.0865
     41  CZ       123.7290  108.4250  152.5210 C.cat 501  ARG501      0.5346
     42  NH1      124.0170  108.1350  151.2610 N.pl3 501  ARG501      0.1354
     43  NH2      124.3700  109.4100  153.1340 N.pl3 501  ARG501      0.1354
     44  N        117.1560  109.7800  162.2720 N.3   505  ASN505     -0.1240
     45  CA       118.0380  109.2530  163.3090 C.3   505  ASN505      0.1653
     46  C        117.2650  108.8140  164.5480 C.2   505  ASN505      0.2266
     47  O        117.5960  107.7910  165.1640 O.2   505  ASN505     -0.2867
     48  CB       119.0770  110.3050  163.6780 C.3   505  ASN505      0.1155
     49  CG       120.0850  110.5290  162.5830 C.2   505  ASN505      0.2627
     50  OD1      120.5820  109.5810  161.9800 O.2   505  ASN505     -0.2716
     51  ND2      120.3890  111.7900  162.3100 N.am  505  ASN505     -0.0877
     52  N        117.2270  105.3510  166.8540 N.3   509  ILE509     -0.1245
     53  CA       117.5060  105.3420  168.2900 C.3   509  ILE509      0.1561
     54  C        116.3620  104.6900  169.0720 C.2   509  ILE509      0.2260
     55  O        116.5940  103.9110  170.0120 O.2   509  ILE509     -0.2867
     56  CB       117.7990  106.7740  168.7680 C.3   509  ILE509      0.0252
     57  CG1      119.0460  107.2970  168.0660 C.3   509  ILE509      0.0019
     58  CG2      118.0240  106.8160  170.2560 C.3   509  ILE509      0.0019
     59  CD1      119.2600  108.7740  168.2280 C.3   509  ILE509      0.0001
     60  N        116.5590  101.2080  168.7170 N.3   512  LEU512     -0.1231
     61  CA       117.7380  100.7590  169.4310 C.3   512  LEU512      0.1693
     62  C        117.2900  100.3590  170.8250 C.2   512  LEU512      0.2592
     63  O        117.5530   99.2470  171.2770 O.2   512  LEU512     -0.2718
     64  CB       118.7730  101.8760  169.5080 C.3   512  LEU512      0.0284
     65  CG       120.0480  101.5500  170.2810 C.3   512  LEU512      0.0019
     66  CD1      120.6070  100.2090  169.8350 C.3   512  LEU512      0.0001
     67  CD2      121.0740  102.6550  170.0960 C.3   512  LEU512      0.0001
     68  N        116.6040  101.2730  171.5060 N.am  513  PHE513     -0.1976
     69  CA       116.0950  100.9860  172.8470 C.3   513  PHE513      0.1639
     70  C        115.0330   99.8920  172.8190 C.2   513  PHE513      0.2290
     71  O        115.1760   98.8510  173.4700 O.2   513  PHE513     -0.2864
     72  CB       115.5410  102.2530  173.4960 C.3   513  PHE513      0.0560
     73  CG       116.5960  103.2040  173.9490 C.ar  513  PHE513     -0.0200
     74  CD1      117.2470  103.0020  175.1530 C.ar  513  PHE513     -0.0042
     75  CD2      116.9410  104.2970  173.1800 C.ar  513  PHE513     -0.0042
     76  CE1      118.2230  103.8770  175.5820 C.ar  513  PHE513     -0.0003
     77  CE2      117.9170  105.1760  173.6000 C.ar  513  PHE513     -0.0003
     78  CZ       118.5590  104.9650  174.8040 C.ar  513  PHE513     -0.0000
     79  N        126.6990  101.6770  162.6320 N.3   542  PHE542     -0.1241
     80  CA       126.1370  102.7950  163.3840 C.3   542  PHE542      0.1605
     81  C        125.4960  102.3190  164.6830 C.2   542  PHE542      0.2264
     82  O        125.6450  102.9570  165.7390 O.2   542  PHE542     -0.2867
     83  CB       125.1330  103.5230  162.4950 C.3   542  PHE542      0.0534
     84  CG       124.5040  104.7140  163.1230 C.ar  542  PHE542     -0.0203
     85  CD1      125.2370  105.8570  163.3560 C.ar  542  PHE542     -0.0042
     86  CD2      123.1630  104.7120  163.4230 C.ar  542  PHE542     -0.0042
     87  CE1      124.6460  106.9660  163.9260 C.ar  542  PHE542     -0.0003
     88  CE2      122.5680  105.8150  163.9870 C.ar  542  PHE542     -0.0003
     89  CZ       123.3100  106.9430  164.2350 C.ar  542  PHE542     -0.0000
     90  N        128.1940  101.3180  166.9810 N.3   545  PHE545     -0.1227
     91  CA       128.8040  102.5370  167.4940 C.3   545  PHE545      0.1736
     92  C        127.9340  103.1040  168.6080 C.2   545  PHE545      0.2596
     93  O        128.4370  103.5480  169.6410 O.2   545  PHE545     -0.2718
     94  CB       128.9470  103.5660  166.3690 C.3   545  PHE545      0.0547
     95  CG       129.2690  104.9540  166.8480 C.ar  545  PHE545     -0.0202
     96  CD1      130.5210  105.5020  166.6320 C.ar  545  PHE545     -0.0042
     97  CD2      128.3160  105.7120  167.5080 C.ar  545  PHE545     -0.0042
     98  CE1      130.8210  106.7780  167.0700 C.ar  545  PHE545     -0.0003
     99  CE2      128.6090  106.9890  167.9490 C.ar  545  PHE545     -0.0003
    100  CZ       129.8630  107.5230  167.7300 C.ar  545  PHE545     -0.0000
    101  N        126.6240  103.0810  168.3870 N.am  546  SER546     -0.1952
    102  CA       125.6630  103.5850  169.3560 C.3   546  SER546      0.1924
    103  C        125.6400  102.7600  170.6390 C.2   546  SER546      0.2314
    104  O        125.5990  103.3140  171.7340 O.2   546  SER546     -0.2863
    105  CB       124.2650  103.6270  168.7420 C.3   546  SER546      0.2116
    106  OG       124.2510  104.4320  167.5790 O.3   546  SER546     -0.2180
    107  N        128.6990  103.4990  172.7680 N.3   549  VAL549     -0.1231
    108  CA       128.5880  104.7890  173.4350 C.3   549  VAL549      0.1692
    109  C        127.7850  104.6510  174.7220 C.2   549  VAL549      0.2591
    110  O        128.1500  105.2110  175.7560 O.2   549  VAL549     -0.2718
    111  CB       127.9220  105.8440  172.5320 C.3   549  VAL549      0.0266
    112  CG1      127.5380  107.0710  173.3430 C.3   549  VAL549      0.0020
    113  CG2      128.8470  106.2220  171.3850 C.3   549  VAL549      0.0020
    114  N        126.6890  103.9020  174.6530 N.am  550  ILE550     -0.1980
    115  CA       125.8440  103.6870  175.8190 C.3   550  ILE550      0.1595
    116  C        126.5630  102.9280  176.9280 C.2   550  ILE550      0.2287
    117  O        126.4230  103.2570  178.1030 O.2   550  ILE550     -0.2864
    118  CB       124.5580  102.9290  175.4550 C.3   550  ILE550      0.0276
    119  CG1      123.6040  103.8430  174.6880 C.3   550  ILE550      0.0022
    120  CG2      123.8840  102.4030  176.7110 C.3   550  ILE550      0.0022
    121  CD1      122.3210  103.1620  174.2650 C.3   550  ILE550      0.0001
    122  N        133.6910  111.0790  170.6540 N.3   648  ILE648     -0.1231
    123  CA       132.3830  110.6700  170.1530 C.3   648  ILE648      0.1692
    124  C        131.6680  111.7340  169.3150 C.2   648  ILE648      0.2592
    125  O        130.9460  111.4060  168.3820 O.2   648  ILE648     -0.2718
    126  CB       131.4510  110.2830  171.3130 C.3   648  ILE648      0.0266
    127  CG1      132.0960  109.2140  172.1920 C.3   648  ILE648      0.0019
    128  CG2      130.1160  109.8020  170.7780 C.3   648  ILE648      0.0020
    129  CD1      132.3140  107.8910  171.4940 C.3   648  ILE648      0.0001
    130  N        131.8630  113.0020  169.6550 N.am  649  PHE649     -0.1976
    131  CA       131.2060  114.1280  168.9790 C.3   649  PHE649      0.1639
    132  C        131.5950  114.4210  167.5250 C.2   649  PHE649      0.2290
    133  O        130.9350  115.2130  166.8640 O.2   649  PHE649     -0.2864
    134  CB       131.3310  115.4050  169.8140 C.3   649  PHE649      0.0560
    135  CG       130.8560  115.2500  171.2270 C.ar  649  PHE649     -0.0200
    136  CD1      129.9510  114.2590  171.5580 C.ar  649  PHE649     -0.0042
    137  CD2      131.3010  116.0980  172.2170 C.ar  649  PHE649     -0.0042
    138  CE1      129.5050  114.1080  172.8560 C.ar  649  PHE649     -0.0003
    139  CE2      130.8610  115.9550  173.5180 C.ar  649  PHE649     -0.0003
    140  CZ       129.9610  114.9580  173.8390 C.ar  649  PHE649     -0.0000
    141  N        131.2960  112.7120  164.7780 N.3   651  VAL651     -0.1231
    142  CA       130.4010  112.2100  163.7350 C.3   651  VAL651      0.1692
    143  C        129.4520  113.1840  163.0120 C.2   651  VAL651      0.2593
    144  O        129.2820  113.0720  161.8040 O.2   651  VAL651     -0.2718
    145  CB       129.5540  111.0460  164.2660 C.3   651  VAL651      0.0266
    146  CG1      128.3790  110.7890  163.3450 C.3   651  VAL651      0.0020
    147  CG2      130.4090  109.8030  164.4130 C.3   651  VAL651      0.0020
    148  N        128.8340  114.1190  163.7240 N.am  652  SER652     -0.1938
    149  CA       127.8930  115.0420  163.1120 C.3   652  SER652      0.2055
    150  C        128.6010  116.0700  162.2390 C.2   652  SER652      0.2643
    151  O        129.7840  116.3580  162.4210 O.2   652  SER652     -0.2714
    152  CB       127.0820  115.7570  164.1880 C.3   652  SER652      0.2130
    153  OG       126.1660  116.6700  163.6120 O.3   652  SER652     -0.2179
    154  N        127.8580  116.6030  161.2650 N.am  653  ARG653     -0.1963
    155  CA       128.3540  117.6890  160.4240 C.3   653  ARG653      0.1729
    156  C        128.6900  118.9320  161.2280 C.2   653  ARG653      0.2616
    157  O        129.6120  119.6720  160.8720 O.2   653  ARG653     -0.2715
    158  CB       127.3150  118.0620  159.3670 C.3   653  ARG653      0.0348
    159  CG       127.0750  117.0440  158.2810 C.3   653  ARG653      0.0492
    160  CD       128.2570  116.9960  157.3470 C.3   653  ARG653      0.2205
    161  NE       128.4990  118.2640  156.6680 N.pl3 653  ARG653     -0.0865
    162  CZ       127.9750  118.5860  155.4930 C.cat 653  ARG653      0.5346
    163  NH1      127.1890  117.7270  154.8600 N.pl3 653  ARG653      0.1354
    164  NH2      128.2470  119.7600  154.9390 N.pl3 653  ARG653      0.1354
    165  N        127.9580  119.1800  162.3100 N.am  654  ASN654     -0.1958
    166  CA       128.0130  120.4650  162.9870 C.3   654  ASN654      0.1819
    167  C        129.0490  120.5090  164.1010 C.2   654  ASN654      0.2621
    168  O        129.6590  121.5560  164.3320 O.2   654  ASN654     -0.2715
    169  CB       126.6280  120.7950  163.5350 C.3   654  ASN654      0.1195
    170  CG       125.5970  120.9160  162.4370 C.2   654  ASN654      0.2630
    171  OD1      125.8630  121.4900  161.3830 O.2   654  ASN654     -0.2716
    172  ND2      124.4190  120.3550  162.6680 N.am  654  ASN654     -0.0877
    173  N        129.2670  119.3970  164.8000 N.am  655  LEU655     -0.1977
    174  CA       130.1780  119.3820  165.9350 C.3   655  LEU655      0.1596
    175  C        131.5980  118.9830  165.5690 C.2   655  LEU655      0.2287
    176  O        132.5160  119.2510  166.3500 O.2   655  LEU655     -0.2864
    177  CB       129.6590  118.4330  167.0090 C.3   655  LEU655      0.0297
    178  CG       128.3220  118.8390  167.6060 C.3   655  LEU655      0.0022
    179  CD1      127.8320  117.7680  168.5560 C.3   655  LEU655      0.0001
    180  CD2      128.4560  120.1700  168.3060 C.3   655  LEU655      0.0001
    181  N        137.5060  117.5110  158.2290 N.3   744  TRP744     -0.1241
    182  CA       136.4400  116.6890  158.7940 C.3   744  TRP744      0.1605
    183  C        136.1650  115.4600  157.9390 C.2   744  TRP744      0.2264
    184  O        135.8580  114.3830  158.4630 O.2   744  TRP744     -0.2867
    185  CB       135.1620  117.5020  158.9580 C.3   744  TRP744      0.0550
    186  CG       134.1170  116.6850  159.5950 C.ar  744  TRP744      0.0003
    187  CD1      134.0680  116.3000  160.8940 C.ar  744  TRP744      0.0946
    188  CD2      133.0180  116.0570  158.9460 C.ar  744  TRP744      0.0152
    189  NE1      132.9770  115.5070  161.1080 N.ar  744  TRP744     -0.2442
    190  CE2      132.3170  115.3400  159.9220 C.ar  744  TRP744      0.0810
    191  CE3      132.5460  116.0470  157.6360 C.ar  744  TRP744      0.0012
    192  CZ2      131.1720  114.6190  159.6320 C.ar  744  TRP744      0.0191
    193  CZ3      131.4130  115.3340  157.3510 C.ar  744  TRP744      0.0001
    194  CH2      130.7360  114.6260  158.3420 C.ar  744  TRP744      0.0015
    195  N        136.4060  111.6210  159.0930 N.3   748  ARG748     -0.1245
    196  CA       135.2920  110.7300  158.8210 C.3   748  ARG748      0.1563
    197  C        135.7740  109.4160  158.2380 C.2   748  ARG748      0.2260
    198  O        135.2630  108.3480  158.6080 O.2   748  ARG748     -0.2867
    199  CB       134.3220  111.4020  157.8640 C.3   748  ARG748      0.0307
    200  CG       133.0410  110.6480  157.7100 C.3   748  ARG748      0.0489
    201  CD       132.0900  111.3590  156.7860 C.3   748  ARG748      0.2205
    202  NE       130.8110  110.6790  156.7600 N.pl3 748  ARG748     -0.0865
    203  CZ       129.7740  111.0900  156.0530 C.cat 748  ARG748      0.5346
    204  NH1      129.8760  112.1750  155.3040 N.pl3 748  ARG748      0.1354
    205  NH2      128.6420  110.4140  156.1000 N.pl3 748  ARG748      0.1354
@<TRIPOS>BOND
     1    42    41    1
     2    41    43    1
     3    41    40    2
     4    39    40    1
     5    39    38    1
     6     1     2    1
     7    38    37    1
     8    37    34    1
     9     5     2    1
    10     5     6    1
    11    33    34    1
    12     3     2    1
    13     3     4    2
    14    36    35    2
    15    35    34    1
    16   163   162    1
    17   164   162    1
    18   204   203    1
    19   162   161    2
    20   203   205    1
    21   203   202    2
    22     7     8    1
    23   161   160    1
    24   202   201    1
    25   201   200    1
    26    28    30   ar
    27    28    26   ar
    28    25    26    1
    29    25    22    1
    30    21    22    1
    31    21     9   am
    32   160   159    1
    33   193   191   ar
    34   193   194   ar
    35    30    31   ar
    36    23    22    1
    37    23    24    2
    38     8    11    1
    39     8     9    1
    40    26    27   ar
    41   191   188   ar
    42   200   199    1
    43    11    12    1
    44   199   196    1
    45   183   184    2
    46   183   182    1
    47     9    10    2
    48   181   182    1
    49   197   198    2
    50   197   196    1
    51   159   158    1
    52   194   192   ar
    53    31    32    1
    54    31    29   ar
    55   182   185    1
    56   196   195    1
    57    27    29   ar
    58   188   186   ar
    59   188   190   ar
    60   185   186    1
    61    12    13   ar
    62    12    14   ar
    63   158   155    1
    64    13    15   ar
    65   186   187   ar
    66   192   190   ar
    67   190   189   ar
    68    14    17   ar
    69    14    16   ar
    70   155   156    1
    71   155   154    1
    72    17    19   ar
    73    15    16   ar
    74   157   156    2
    75   187   189   ar
    76   156   165   am
    77   154   150   am
    78    16    18   ar
    79   171   170    2
    80   144   143    2
    81    50    49    2
    82    19    20   ar
    83   150   151    2
    84   150   149    1
    85    44    45    1
    86    51    49   am
    87   165   166    1
    88   170   172   am
    89   170   169    1
    90    83    84    1
    91    83    80    1
    92    49    48    1
    93    79    80    1
    94    18    20   ar
    95   166   169    1
    96   166   167    1
    97   143   148   am
    98   143   142    1
    99   149   148    1
   100   149   152    1
   101    84    85   ar
   102    84    86   ar
   103    45    48    1
   104    45    46    1
   105   146   145    1
   106    85    87   ar
   107    80    81    1
   108    86    88   ar
   109   153   152    1
   110   142   145    1
   111   142   141    1
   112    87    89   ar
   113    88    89   ar
   114   167   168    2
   115   167   173   am
   116   145   147    1
   117    46    47    2
   118    81    82    2
   119   173   174    1
   120   175   174    1
   121   175   176    2
   122   174   177    1
   123    94    95    1
   124    94    91    1
   125    96    95   ar
   126    96    98   ar
   127    95    97   ar
   128    52    53    1
   129   133   132    2
   130    90    91    1
   131   177   178    1
   132    98   100   ar
   133    91    92    1
   134    97    99   ar
   135   132   131    1
   136   106   105    1
   137   178   180    1
   138   178   179    1
   139   100    99   ar
   140    57    59    1
   141    57    56    1
   142    53    56    1
   143    53    54    1
   144   125   124    2
   145   101    92   am
   146   101   102    1
   147    92    93    2
   148    60    61    1
   149   105   102    1
   150    56    58    1
   151   131   130    1
   152   131   134    1
   153    54    55    2
   154   124   130   am
   155   124   123    1
   156   102   103    1
   157    61    64    1
   158    61    62    1
   159    64    65    1
   160   134   135    1
   161    66    65    1
   162    67    65    1
   163   123   122    1
   164   123   126    1
   165   103   104    2
   166   128   126    1
   167    62    63    2
   168    62    68   am
   169   135   136   ar
   170   135   137   ar
   171   126   127    1
   172   113   111    1
   173   129   127    1
   174    68    69    1
   175   136   138   ar
   176   137   139   ar
   177   111   112    1
   178   111   108    1
   179   107   108    1
   180    70    69    1
   181    70    71    2
   182    69    72    1
   183   138   140   ar
   184    75    77   ar
   185    75    73   ar
   186   108   109    1
   187    72    73    1
   188   139   140   ar
   189    77    78   ar
   190    73    74   ar
   191   121   119    1
   192   114   109   am
   193   114   115    1
   194   119   118    1
   195   109   110    2
   196    78    76   ar
   197    74    76   ar
   198   118   115    1
   199   118   120    1
   200   115   116    1
   201   116   117    2
