@<TRIPOS>MOLECULE
tmp/6nr3D00.pdb
 190 182 0 0 0
SMALL
GASTEIGER

@<TRIPOS>ATOM
      1  N        128.1940  101.3180  166.9810 N.3   545  PHE545     -0.1241
      2  CA       128.8040  102.5370  167.4940 C.3   545  PHE545      0.1605
      3  C        127.9340  103.1040  168.6080 C.2   545  PHE545      0.2264
      4  O        128.4370  103.5480  169.6410 O.2   545  PHE545     -0.2867
      5  CB       128.9470  103.5660  166.3690 C.3   545  PHE545      0.0534
      6  CG       129.2690  104.9540  166.8480 C.ar  545  PHE545     -0.0203
      7  CD1      130.5210  105.5020  166.6320 C.ar  545  PHE545     -0.0042
      8  CD2      128.3160  105.7120  167.5080 C.ar  545  PHE545     -0.0042
      9  CE1      130.8210  106.7780  167.0700 C.ar  545  PHE545     -0.0003
     10  CE2      128.6090  106.9890  167.9490 C.ar  545  PHE545     -0.0003
     11  CZ       129.8630  107.5230  167.7300 C.ar  545  PHE545     -0.0000
     12  N        128.0460  100.9340  171.8620 N.3   548  ASN548     -0.1225
     13  CA       129.3050  101.1610  172.5610 C.3   548  ASN548      0.1785
     14  C        129.2640  102.4540  173.3660 C.2   548  ASN548      0.2597
     15  O        129.7340  102.5040  174.5020 O.2   548  ASN548     -0.2718
     16  CB       130.4770  101.1840  171.5770 C.3   548  ASN548      0.1169
     17  CG       130.7900   99.8130  171.0110 C.2   548  ASN548      0.2627
     18  OD1      130.1500   98.8220  171.3630 O.2   548  ASN548     -0.2716
     19  ND2      131.7790   99.7490  170.1270 N.am  548  ASN548     -0.0877
     20  N        128.6990  103.4990  172.7680 N.am  549  VAL549     -0.1980
     21  CA       128.5880  104.7890  173.4350 C.3   549  VAL549      0.1595
     22  C        127.7850  104.6510  174.7220 C.2   549  VAL549      0.2287
     23  O        128.1500  105.2110  175.7560 O.2   549  VAL549     -0.2864
     24  CB       127.9220  105.8440  172.5320 C.3   549  VAL549      0.0276
     25  CG1      127.5380  107.0710  173.3430 C.3   549  VAL549      0.0022
     26  CG2      128.8470  106.2220  171.3850 C.3   549  VAL549      0.0022
     27  N        129.9420  102.6330  177.3290 N.3   552  TYR552     -0.1241
     28  CA       131.0610  103.4280  177.8090 C.3   552  TYR552      0.1605
     29  C        130.5560  104.4080  178.8590 C.2   552  TYR552      0.2264
     30  O        131.2020  104.6190  179.8850 O.2   552  TYR552     -0.2867
     31  CB       131.7280  104.1810  176.6580 C.3   552  TYR552      0.0534
     32  CG       132.9220  105.0050  177.0820 C.ar  552  TYR552     -0.0201
     33  CD1      134.1790  104.4280  177.2030 C.ar  552  TYR552     -0.0009
     34  CD2      132.7930  106.3580  177.3640 C.ar  552  TYR552     -0.0009
     35  CE1      135.2750  105.1770  177.5890 C.ar  552  TYR552      0.0417
     36  CE2      133.8820  107.1140  177.7520 C.ar  552  TYR552      0.0417
     37  CZ       135.1210  106.5190  177.8630 C.ar  552  TYR552      0.1957
     38  OH       136.2090  107.2680  178.2500 O.3   552  TYR552     -0.2866
     39  N        139.2540   96.3630  177.7870 N.3   585  LEU585     -0.1245
     40  CA       139.7570   97.5510  177.1210 C.3   585  LEU585      0.1561
     41  C        141.1670   97.3240  176.5780 C.2   585  LEU585      0.2260
     42  O        141.4750   97.7430  175.4630 O.2   585  LEU585     -0.2867
     43  CB       139.7730   98.7340  178.0910 C.3   585  LEU585      0.0270
     44  CG       138.4230   99.2400  178.6010 C.3   585  LEU585      0.0019
     45  CD1      138.6100  100.1430  179.8110 C.3   585  LEU585      0.0001
     46  CD2      137.6800   99.9690  177.4930 C.3   585  LEU585      0.0001
     47  N        141.1010   95.0160  173.5360 N.3   588  ASP588     -0.1225
     48  CA       140.7180   95.8030  172.3660 C.3   588  ASP588      0.1805
     49  C        141.9030   96.5930  171.8190 C.2   588  ASP588      0.2597
     50  O        142.1250   96.6270  170.6010 O.2   588  ASP588     -0.2718
     51  CB       139.5700   96.7440  172.7330 C.3   588  ASP588      0.1424
     52  CG       138.8760   97.3420  171.5180 C.2   588  ASP588      0.3668
     53  OD1      139.2260   96.9920  170.3700 O.co2 588  ASP588     -0.2456
     54  OD2      137.9750   98.1820  171.7140 O.co2 588  ASP588     -0.2456
     55  N        142.6820   97.2020  172.7070 N.am  589  GLU589     -0.1979
     56  CA       143.8490   97.9680  172.2820 C.3   589  GLU589      0.1602
     57  C        144.8850   97.0580  171.6280 C.2   589  GLU589      0.2287
     58  O        145.4750   97.4100  170.6070 O.2   589  GLU589     -0.2864
     59  CB       144.4700   98.7170  173.4620 C.3   589  GLU589      0.0415
     60  CG       143.5550   99.7650  174.0690 C.3   589  GLU589      0.1163
     61  CD       142.8520  100.5970  173.0150 C.2   589  GLU589      0.3649
     62  OE1      143.5410  101.1330  172.1220 O.co2 589  GLU589     -0.2457
     63  OE2      141.6110  100.7130  173.0800 O.co2 589  GLU589     -0.2457
     64  N        143.7880   96.2400  168.2330 N.3   592  GLN592     -0.1245
     65  CA       143.8640   97.4540  167.4280 C.3   592  GLN592      0.1566
     66  C        145.2990   97.7790  167.0240 C.2   592  GLN592      0.2260
     67  O        145.5290   98.3120  165.9330 O.2   592  GLN592     -0.2867
     68  CB       143.2310   98.6090  168.2060 C.3   592  GLN592      0.0367
     69  CG       143.0780   99.9080  167.4430 C.3   592  GLN592      0.0905
     70  CD       142.3050  100.9450  168.2340 C.2   592  GLN592      0.2608
     71  OE1      141.8710  100.6870  169.3550 O.2   592  GLN592     -0.2717
     72  NE2      142.1300  102.1250  167.6530 N.am  592  GLN592     -0.0878
     73  N        146.8190  108.5250  173.8070 N.3   608  MET608     -0.1230
     74  CA       146.1620  108.8930  175.0520 C.3   608  MET608      0.1702
     75  C        145.6410  107.6610  175.7810 C.2   608  MET608      0.2592
     76  O        145.7880  107.5440  176.9960 O.2   608  MET608     -0.2718
     77  CB       145.0150  109.8660  174.7850 C.3   608  MET608      0.0401
     78  CG       145.4630  111.2350  174.3060 C.3   608  MET608      0.0596
     79  SD       144.0700  112.2790  173.8450 S.3   608  MET608     -0.1393
     80  CE       143.0250  112.0940  175.2860 C.3   608  MET608      0.0692
     81  N        145.0330  106.7400  175.0400 N.am  609  ASP609     -0.1974
     82  CA       144.5180  105.5150  175.6460 C.3   609  ASP609      0.1709
     83  C        145.6380  104.6350  176.2070 C.2   609  ASP609      0.2293
     84  O        145.4940  104.0420  177.2750 O.2   609  ASP609     -0.2864
     85  CB       143.5710  104.7490  174.7070 C.3   609  ASP609      0.1436
     86  CG       144.2510  104.2620  173.4470 C.2   609  ASP609      0.3671
     87  OD1      145.3290  103.6420  173.5580 O.co2 609  ASP609     -0.2456
     88  OD2      143.7010  104.4850  172.3460 O.co2 609  ASP609     -0.2456
     89  N        146.6750  106.2700  179.5080 N.3   612  GLY612     -0.1210
     90  CA       145.6610  106.0640  180.5240 C.3   612  GLY612      0.1956
     91  C        145.4770  104.6140  180.9320 C.2   612  GLY612      0.2611
     92  O        145.1160  104.3350  182.0750 O.2   612  GLY612     -0.2717
     93  N        145.7230  103.6870  180.0100 N.am  613  ILE613     -0.1979
     94  CA       145.5620  102.2680  180.3260 C.3   613  ILE613      0.1595
     95  C        146.7590  101.6890  181.0840 C.2   613  ILE613      0.2287
     96  O        146.5960  100.7910  181.9080 O.2   613  ILE613     -0.2864
     97  CB       145.1820  101.4130  179.0930 C.3   613  ILE613      0.0276
     98  CG1      144.5880  100.0770  179.5390 C.3   613  ILE613      0.0022
     99  CG2      146.3690  101.2060  178.1620 C.3   613  ILE613      0.0022
    100  CD1      143.7290   99.4210  178.4850 C.3   613  ILE613      0.0001
    101  N        141.8830  111.2170  183.0800 N.3   640  VAL640     -0.1231
    102  CA       142.3850  110.7880  181.7770 C.3   640  VAL640      0.1692
    103  C        141.3860  109.9290  180.9990 C.2   640  VAL640      0.2592
    104  O        141.5540  109.7090  179.8000 O.2   640  VAL640     -0.2718
    105  CB       143.7090  110.0110  181.9130 C.3   640  VAL640      0.0266
    106  CG1      144.1750  109.5150  180.5520 C.3   640  VAL640      0.0020
    107  CG2      144.7720  110.8850  182.5620 C.3   640  VAL640      0.0020
    108  N        140.3510  109.4470  181.6810 N.am  641  PHE641     -0.1976
    109  CA       139.3370  108.6090  181.0420 C.3   641  PHE641      0.1639
    110  C        138.0570  109.3730  180.7090 C.2   641  PHE641      0.2290
    111  O        137.2360  108.9100  179.9190 O.2   641  PHE641     -0.2864
    112  CB       139.0030  107.4020  181.9240 C.3   641  PHE641      0.0560
    113  CG       139.8360  106.1850  181.6330 C.ar  641  PHE641     -0.0200
    114  CD1      139.2990  105.1150  180.9390 C.ar  641  PHE641     -0.0042
    115  CD2      141.1530  106.1110  182.0530 C.ar  641  PHE641     -0.0042
    116  CE1      140.0590  103.9920  180.6700 C.ar  641  PHE641     -0.0003
    117  CE2      141.9190  104.9920  181.7870 C.ar  641  PHE641     -0.0003
    118  CZ       141.3720  103.9310  181.0950 C.ar  641  PHE641     -0.0000
    119  N        138.4520  111.6640  177.2350 N.3   644  ARG644     -0.1245
    120  CA       138.3330  110.8250  176.0440 C.3   644  ARG644      0.1563
    121  C        136.9460  110.7760  175.4050 C.2   644  ARG644      0.2260
    122  O        136.8250  110.5970  174.1970 O.2   644  ARG644     -0.2867
    123  CB       138.7900  109.3990  176.3620 C.3   644  ARG644      0.0307
    124  CG       138.2360  108.3520  175.4130 C.3   644  ARG644      0.0489
    125  CD       138.6660  108.6260  173.9840 C.3   644  ARG644      0.2205
    126  NE       140.0530  108.2470  173.7530 N.pl3 644  ARG644     -0.0865
    127  CZ       140.4260  107.0810  173.2390 C.cat 644  ARG644      0.5346
    128  NH1      141.7120  106.8120  173.0610 N.pl3 644  ARG644      0.1354
    129  NH2      139.5110  106.1840  172.9020 N.pl3 644  ARG644      0.1354
    130  N        135.8520  112.4460  171.8590 N.3   647  HIS647     -0.1226
    131  CA       136.0140  111.8210  170.5470 C.3   647  HIS647      0.1752
    132  C        134.6990  111.4290  169.8640 C.2   647  HIS647      0.2595
    133  O        134.6100  111.4310  168.6420 O.2   647  HIS647     -0.2718
    134  CB       136.9150  110.5940  170.6730 C.3   647  HIS647      0.0759
    135  CG       136.9160  109.7170  169.4640 C.ar  647  HIS647      0.0818
    136  ND1      137.1740  110.1950  168.1980 N.ar  647  HIS647     -0.2268
    137  CD2      136.7120  108.3860  169.3300 C.ar  647  HIS647      0.1154
    138  CE1      137.1170  109.1990  167.3340 C.ar  647  HIS647      0.1986
    139  NE2      136.8390  108.0900  167.9960 N.ar  647  HIS647     -0.2212
    140  N        133.6910  111.0790  170.6540 N.am  648  ILE648     -0.1980
    141  CA       132.3830  110.6700  170.1530 C.3   648  ILE648      0.1595
    142  C        131.6680  111.7340  169.3150 C.2   648  ILE648      0.2287
    143  O        130.9460  111.4060  168.3820 O.2   648  ILE648     -0.2864
    144  CB       131.4510  110.2830  171.3130 C.3   648  ILE648      0.0276
    145  CG1      132.0960  109.2140  172.1920 C.3   648  ILE648      0.0022
    146  CG2      130.1160  109.8020  170.7780 C.3   648  ILE648      0.0022
    147  CD1      132.3140  107.8910  171.4940 C.3   648  ILE648      0.0001
    148  N        137.8330  102.3960  161.2220 N.3   754  GLU754     -0.1231
    149  CA       137.9790  101.5650  162.4300 C.3   754  GLU754      0.1699
    150  C        136.8260  100.5500  162.6820 C.2   754  GLU754      0.2592
    151  O        137.0350   99.3390  162.9550 O.2   754  GLU754     -0.2718
    152  CB       138.1530  102.4580  163.6560 C.3   754  GLU754      0.0402
    153  CG       138.1370  101.7160  164.9790 C.3   754  GLU754      0.1161
    154  CD       138.2130  102.6580  166.1630 C.2   754  GLU754      0.3649
    155  OE1      138.2330  103.8860  165.9420 O.co2 754  GLU754     -0.2457
    156  OE2      138.2510  102.1740  167.3130 O.co2 754  GLU754     -0.2457
    157  N        135.5990  101.0460  162.5740 N.am  755  TYR755     -0.1976
    158  CA       134.4140  100.2250  162.8230 C.3   755  TYR755      0.1639
    159  C        134.1870   99.0320  161.8880 C.2   755  TYR755      0.2290
    160  O        133.7980   97.9600  162.3520 O.2   755  TYR755     -0.2864
    161  CB       133.1600  101.0990  162.9360 C.3   755  TYR755      0.0560
    162  CG       133.0700  101.8040  164.2700 C.ar  755  TYR755     -0.0198
    163  CD1      132.4270  101.2110  165.3480 C.ar  755  TYR755     -0.0009
    164  CD2      133.6490  103.0520  164.4590 C.ar  755  TYR755     -0.0009
    165  CE1      132.3500  101.8460  166.5720 C.ar  755  TYR755      0.0417
    166  CE2      133.5770  103.6960  165.6810 C.ar  755  TYR755      0.0417
    167  CZ       132.9270  103.0880  166.7330 C.ar  755  TYR755      0.1957
    168  OH       132.8540  103.7220  167.9520 O.3   755  TYR755     -0.2866
    169  N        136.3050   96.3750  163.0790 N.3   758  ARG758     -0.1245
    170  CA       135.8590   95.7840  164.3610 C.3   758  ARG758      0.1563
    171  C        134.7350   94.7150  164.2940 C.2   758  ARG758      0.2260
    172  O        133.8270   94.8150  163.4720 O.2   758  ARG758     -0.2867
    173  CB       135.4460   96.8890  165.3320 C.3   758  ARG758      0.0307
    174  CG       135.0040   96.3770  166.6890 C.3   758  ARG758      0.0489
    175  CD       134.3110   97.4730  167.4750 C.3   758  ARG758      0.2205
    176  NE       135.0090   98.7470  167.3490 N.pl3 758  ARG758     -0.0865
    177  CZ       136.0470   99.1040  168.0960 C.cat 758  ARG758      0.5346
    178  NH1      136.5130   98.2790  169.0230 N.pl3 758  ARG758      0.1354
    179  NH2      136.6210  100.2830  167.9160 N.pl3 758  ARG758      0.1354
    180  N        130.4800   96.3360  173.1190 N.3   763  PHE763     -0.1241
    181  CA       131.5680   96.5660  174.0630 C.3   763  PHE763      0.1605
    182  C        131.8300   95.5060  175.1450 C.2   763  PHE763      0.2264
    183  O        132.8970   94.8920  175.1570 O.2   763  PHE763     -0.2867
    184  CB       131.3870   97.9350  174.7270 C.3   763  PHE763      0.0534
    185  CG       132.4610   98.2750  175.7170 C.ar  763  PHE763     -0.0203
    186  CD1      133.6530   98.8360  175.2970 C.ar  763  PHE763     -0.0042
    187  CD2      132.2760   98.0350  177.0680 C.ar  763  PHE763     -0.0042
    188  CE1      134.6440   99.1510  176.2040 C.ar  763  PHE763     -0.0003
    189  CE2      133.2640   98.3480  177.9830 C.ar  763  PHE763     -0.0003
    190  CZ       134.4500   98.9070  177.5500 C.ar  763  PHE763     -0.0000
@<TRIPOS>BOND
     1   148   149    1
     2   159   160    2
     3   159   158    1
     4   149   150    1
     5   149   152    1
     6   157   150   am
     7   157   158    1
     8   150   151    2
     9   158   161    1
    10   161   162    1
    11   169   170    1
    12   172   171    2
    13   152   153    1
    14   162   164   ar
    15   162   163   ar
    16   171   170    1
    17   170   173    1
    18   164   166   ar
    19   153   154    1
    20   173   174    1
    21   163   165   ar
    22   166   167   ar
    23    67    66    2
    24   155   154   ar
    25   154   156   ar
    26     5     6    1
    27     5     2    1
    28   165   167   ar
    29     7     6   ar
    30     7     9   ar
    31   174   175    1
    32   167   168    1
    33     6     8   ar
    34     1     2    1
    35    66    65    1
    36     9    11   ar
    37   138   139   ar
    38   138   136   ar
    39   176   175    1
    40   176   177    2
    41    65    68    1
    42    65    64    1
    43    69    68    1
    44    69    70    1
    45     2     3    1
    46     8    10   ar
    47    72    70   am
    48    11    10   ar
    49   179   177    1
    50   139   137   ar
    51   177   178    1
    52   136   135   ar
    53    70    71    2
    54   143   142    2
    55     3     4    2
    56   133   132    2
    57   142   141    1
    58   137   135   ar
    59   135   134    1
    60   132   131    1
    61   132   140   am
    62    19    17   am
    63   141   140    1
    64   141   144    1
    65    53    52   ar
    66   131   134    1
    67   131   130    1
    68    50    49    2
    69    58    57    2
    70   146   144    1
    71    17    18    2
    72    17    16    1
    73   144   145    1
    74    26    24    1
    75   147   145    1
    76    52    54   ar
    77    52    51    1
    78    16    13    1
    79    57    56    1
    80    49    48    1
    81    49    55   am
    82    12    13    1
    83    62    61   ar
    84    56    55    1
    85    56    59    1
    86    88    86   ar
    87    48    51    1
    88    48    47    1
    89    24    25    1
    90    24    21    1
    91    13    14    1
    92    20    14   am
    93    20    21    1
    94   129   127    1
    95    61    63   ar
    96    61    60    1
    97   128   127    1
    98   180   181    1
    99   127   126    2
   100    14    15    2
   101    21    22    1
   102    86    87   ar
   103    86    85    1
   104    59    60    1
   105   126   125    1
   106    73    74    1
   107    79    78    1
   108    79    80    1
   109   125   124    1
   110   181   184    1
   111   181   182    1
   112   122   121    2
   113    78    77    1
   114    85    82    1
   115    22    23    2
   116   184   185    1
   117    77    74    1
   118    81    82    1
   119    81    75   am
   120    74    75    1
   121   182   183    2
   122   186   185   ar
   123   186   188   ar
   124   121   120    1
   125   124   123    1
   126    42    41    2
   127    82    83    1
   128   185   187   ar
   129    75    76    2
   130   120   123    1
   131   120   119    1
   132   188   190   ar
   133    83    84    2
   134    41    40    1
   135    31    32    1
   136    31    28    1
   137   187   189   ar
   138    32    33   ar
   139    32    34   ar
   140    40    39    1
   141    40    43    1
   142    33    35   ar
   143    27    28    1
   144    34    36   ar
   145    46    44    1
   146   190   189   ar
   147    35    37   ar
   148    36    37   ar
   149    28    29    1
   150    37    38    1
   151    43    44    1
   152    99    97    1
   153   100    98    1
   154    44    45    1
   155    29    30    2
   156    97    98    1
   157    97    94    1
   158    89    90    1
   159   104   103    2
   160   111   110    2
   161    93    94    1
   162    93    91   am
   163    94    95    1
   164    90    91    1
   165   106   105    1
   166   116   114   ar
   167   116   118   ar
   168   110   109    1
   169    91    92    2
   170   114   113   ar
   171   103   108   am
   172   103   102    1
   173   109   108    1
   174   109   112    1
   175    95    96    2
   176   118   117   ar
   177   113   112    1
   178   113   115   ar
   179   102   105    1
   180   102   101    1
   181   117   115   ar
   182   105   107    1
