@<TRIPOS>MOLECULE
tmp/6nrzA01.pdb
 137 130 0 0 0
SMALL
GASTEIGER

@<TRIPOS>ATOM
      1  N          2.6740   -7.9020   46.5430 N.3   268  ARG268     -0.1245
      2  CA         1.5620   -7.9450   47.4940 C.3   268  ARG268      0.1563
      3  C          0.5830   -8.9940   46.9930 C.2   268  ARG268      0.2260
      4  O         -0.0630   -8.8070   45.9580 O.2   268  ARG268     -0.2867
      5  CB         0.9130   -6.5670   47.6620 C.3   268  ARG268      0.0307
      6  CG         1.9310   -5.5760   48.2990 C.3   268  ARG268      0.0489
      7  CD         1.3950   -4.1820   48.6500 C.3   268  ARG268      0.2205
      8  NE         2.5100   -3.3480   49.1260 N.pl3 268  ARG268     -0.0865
      9  CZ         2.4260   -2.0530   49.4160 C.cat 268  ARG268      0.5346
     10  NH1        1.2690   -1.4230   49.2770 N.pl3 268  ARG268      0.1354
     11  NH2        3.5070   -1.3820   49.8260 N.pl3 268  ARG268      0.1354
     12  N         -2.2470  -10.2110   46.7160 N.3   270  GLU270     -0.1245
     13  CA        -3.6480   -9.8300   46.8590 C.3   270  GLU270      0.1567
     14  C         -4.3770   -9.8080   45.5160 C.2   270  GLU270      0.2260
     15  O         -3.9820  -10.5110   44.5820 O.2   270  GLU270     -0.2867
     16  CB        -3.7330   -8.4800   47.5620 C.3   270  GLU270      0.0388
     17  CG        -3.4050   -8.6250   49.0440 C.3   270  GLU270      0.1160
     18  CD        -2.8660   -7.3650   49.6690 C.2   270  GLU270      0.3649
     19  OE1       -2.8250   -6.3110   48.9980 O.co2 270  GLU270     -0.2457
     20  OE2       -2.4790   -7.4360   50.8470 O.co2 270  GLU270     -0.2457
     21  N         -6.0230   -0.9250   39.2050 N.3   275  THR275     -0.1203
     22  CA        -4.9300   -0.2080   39.8400 C.3   275  THR275      0.1994
     23  C         -4.0800   -1.1180   40.7140 C.2   275  THR275      0.2618
     24  O         -3.2280   -0.6140   41.4560 O.2   275  THR275     -0.2717
     25  CB        -5.4620    0.9750   40.6590 C.3   275  THR275      0.1784
     26  OG1       -6.4600    0.5060   41.5780 O.3   275  THR275     -0.2211
     27  CG2       -6.0630    2.0560   39.7210 C.3   275  THR275      0.0376
     28  N         -4.2630   -2.4390   40.6290 N.am  276  HIS276     -0.1961
     29  CA        -3.4490   -3.3760   41.4100 C.3   276  HIS276      0.1787
     30  C         -2.9820   -4.5410   40.5460 C.2   276  HIS276      0.2620
     31  O         -3.8040   -5.2910   40.0060 O.2   276  HIS276     -0.2715
     32  CB        -4.2150   -3.9270   42.6190 C.3   276  HIS276      0.0785
     33  CG        -4.6620   -2.8870   43.6000 C.ar  276  HIS276      0.0821
     34  ND1       -5.7840   -2.1080   43.4030 N.ar  276  HIS276     -0.2267
     35  CD2       -4.1620   -2.5270   44.8090 C.ar  276  HIS276      0.1154
     36  CE1       -5.9480   -1.3040   44.4420 C.ar  276  HIS276      0.1986
     37  NE2       -4.9770   -1.5380   45.3080 N.ar  276  HIS276     -0.2212
     38  N         -1.6540   -4.7140   40.4540 N.am  277  ASN277     -0.1959
     39  CA        -0.9660   -5.9210   39.9940 C.3   277  ASN277      0.1804
     40  C         -0.1870   -6.4930   41.1780 C.2   277  ASN277      0.2463
     41  O          0.3100   -5.7220   42.0000 O.2   277  ASN277     -0.2730
     42  CB        -0.0080   -5.6180   38.8210 C.3   277  ASN277      0.1195
     43  CG         0.4100   -6.8770   38.0280 C.2   277  ASN277      0.2630
     44  OD1       -0.4080   -7.5190   37.3870 O.2   277  ASN277     -0.2716
     45  ND2        1.7050   -7.1960   38.0450 N.am  277  ASN277     -0.0877
     46  N         -0.0950   -7.8140   41.3270 N.am  278  PRO278     -0.2727
     47  CA         0.6180   -8.3710   42.4980 C.3   278  PRO278      0.1402
     48  C          2.0930   -7.9940   42.5470 C.2   278  PRO278      0.2269
     49  O          2.6730   -7.9010   43.6370 O.2   278  PRO278     -0.2865
     50  CB         0.4290   -9.8880   42.3400 C.3   278  PRO278      0.0296
     51  CG        -0.8010  -10.0250   41.4630 C.3   278  PRO278      0.0237
     52  CD        -0.7520   -8.8530   40.5210 C.3   278  PRO278      0.0939
     53  N          4.5580   -4.8910   41.4110 N.3   280  PHE280     -0.1241
     54  CA         4.4950   -3.5230   40.9270 C.3   280  PHE280      0.1605
     55  C          5.7700   -2.8100   41.3360 C.2   280  PHE280      0.2264
     56  O          6.5760   -3.3240   42.1220 O.2   280  PHE280     -0.2867
     57  CB         3.2230   -2.7970   41.4140 C.3   280  PHE280      0.0534
     58  CG         3.0860   -2.6960   42.9100 C.ar  280  PHE280     -0.0203
     59  CD1        2.5870   -3.7540   43.6510 C.ar  280  PHE280     -0.0042
     60  CD2        3.4110   -1.5150   43.5660 C.ar  280  PHE280     -0.0042
     61  CE1        2.4430   -3.6460   45.0400 C.ar  280  PHE280     -0.0003
     62  CE2        3.2670   -1.3950   44.9380 C.ar  280  PHE280     -0.0003
     63  CZ         2.7850   -2.4600   45.6820 C.ar  280  PHE280     -0.0000
     64  N          7.7790    0.4140   42.8930 N.3   282  MET282     -0.1245
     65  CA         7.7270    1.5340   43.8080 C.3   282  MET282      0.1570
     66  C          9.0480    2.2720   43.7740 C.2   282  MET282      0.2261
     67  O         10.1110    1.6610   43.6090 O.2   282  MET282     -0.2867
     68  CB         7.4530    1.0550   45.2460 C.3   282  MET282      0.0387
     69  CG         5.9640    0.8880   45.5550 C.3   282  MET282      0.0595
     70  SD         5.6500    1.1730   47.3050 S.3   282  MET282     -0.1393
     71  CE         6.8340    0.0670   48.0530 C.3   282  MET282      0.0692
     72  N         -4.7510    6.8080   45.1610 N.3   435  GLU435     -0.1231
     73  CA        -3.5870    7.1170   45.9740 C.3   435  GLU435      0.1699
     74  C         -2.3380    7.0440   45.1160 C.2   435  GLU435      0.2592
     75  O         -2.1040    6.0590   44.4120 O.2   435  GLU435     -0.2718
     76  CB        -3.4700    6.1430   47.1480 C.3   435  GLU435      0.0402
     77  CG        -2.3210    6.4760   48.0710 C.3   435  GLU435      0.1161
     78  CD        -2.0120    5.3540   49.0520 C.2   435  GLU435      0.3649
     79  OE1       -0.8700    5.3110   49.5610 O.co2 435  GLU435     -0.2457
     80  OE2       -2.9050    4.5140   49.3080 O.co2 435  GLU435     -0.2457
     81  N         -1.5460    8.0970   45.1590 N.am  436  LEU436     -0.1966
     82  CA        -0.2830    8.1440   44.4410 C.3   436  LEU436      0.1728
     83  C          0.9300    8.0160   45.3480 C.2   436  LEU436      0.2616
     84  O          1.9330    7.4300   44.9450 O.2   436  LEU436     -0.2715
     85  CB        -0.1900    9.4640   43.6680 C.3   436  LEU436      0.0311
     86  CG         0.9970    9.7490   42.7610 C.3   436  LEU436      0.0022
     87  CD1        1.0550    8.7160   41.6450 C.3   436  LEU436      0.0001
     88  CD2        0.8580   11.1780   42.1980 C.3   436  LEU436      0.0001
     89  N          0.8560    8.5390   46.5660 N.am  437  CYS437     -0.1954
     90  CA         2.0290    8.6520   47.4150 C.3   437  CYS437      0.1843
     91  C          1.6100    8.4310   48.8570 C.2   437  CYS437      0.2625
     92  O          0.4740    8.7290   49.2380 O.2   437  CYS437     -0.2714
     93  CB         2.6890   10.0390   47.2590 C.3   437  CYS437      0.0997
     94  SG         4.1820   10.2840   48.2370 S.3   437  CYS437     -0.0797
     95  N          2.5420    7.9020   49.6470 N.am  438  ASN438     -0.1972
     96  CA         2.3940    7.7190   51.0870 C.3   438  ASN438      0.1688
     97  C          3.7060    8.1870   51.7180 C.2   438  ASN438      0.2292
     98  O          4.7790    7.8010   51.2500 O.2   438  ASN438     -0.2864
     99  CB         2.1240    6.2490   51.4120 C.3   438  ASN438      0.1181
    100  CG         1.9010    6.0020   52.8910 C.2   438  ASN438      0.2629
    101  OD1        1.3600    6.8540   53.6100 O.2   438  ASN438     -0.2716
    102  ND2        2.2900    4.8170   53.3500 N.am  438  ASN438     -0.0877
    103  N          6.8760    6.9460   49.5090 N.3   490  GLY490     -0.1225
    104  CA         6.8150    5.8700   48.5460 C.3   490  GLY490      0.1811
    105  C          5.7750    6.2290   47.5100 C.2   490  GLY490      0.2280
    106  O          4.6700    6.6430   47.8750 O.2   490  GLY490     -0.2866
    107  N          3.7450    4.8250   44.0210 N.3   492  GLY492     -0.1225
    108  CA         3.4850    3.7380   43.0960 C.3   492  GLY492      0.1811
    109  C          3.7340    4.2010   41.6700 C.2   492  GLY492      0.2280
    110  O          2.9330    4.9430   41.0960 O.2   492  GLY492     -0.2866
    111  N          3.7110    2.6750   38.8250 N.3   494  ASP494     -0.1225
    112  CA         2.8060    2.2370   37.7640 C.3   494  ASP494      0.1805
    113  C          1.5760    3.1270   37.7030 C.2   494  ASP494      0.2597
    114  O          1.1230    3.4940   36.6110 O.2   494  ASP494     -0.2718
    115  CB         2.4210    0.7770   37.9620 C.3   494  ASP494      0.1424
    116  CG         3.6300   -0.0860   38.2500 C.2   494  ASP494      0.3668
    117  OD1        4.4210   -0.3630   37.3140 O.co2 494  ASP494     -0.2456
    118  OD2        3.8090   -0.4420   39.4310 O.co2 494  ASP494     -0.2456
    119  N          1.0520    3.5310   38.8680 N.am  495  ARG495     -0.1979
    120  CA        -0.0870    4.4530   38.8780 C.3   495  ARG495      0.1597
    121  C          0.2890    5.8230   38.3320 C.2   495  ARG495      0.2287
    122  O         -0.5180    6.4730   37.6540 O.2   495  ARG495     -0.2864
    123  CB        -0.6470    4.5940   40.2900 C.3   495  ARG495      0.0334
    124  CG        -1.3370    3.3490   40.7470 C.3   495  ARG495      0.0492
    125  CD        -2.0450    3.6010   42.0330 C.3   495  ARG495      0.2205
    126  NE        -2.4810    2.3540   42.6330 N.pl3 495  ARG495     -0.0865
    127  CZ        -3.2170    2.2940   43.7310 C.cat 495  ARG495      0.5346
    128  NH1       -3.5840    3.4180   44.3320 N.pl3 495  ARG495      0.1354
    129  NH2       -3.5800    1.1160   44.2210 N.pl3 495  ARG495      0.1354
    130  N         -3.8270   -0.4890   35.0550 N.3   506  ILE506     -0.1245
    131  CA        -2.4250   -0.8120   35.2940 C.3   506  ILE506      0.1561
    132  C         -1.9470   -1.8510   34.2890 C.2   506  ILE506      0.2260
    133  O         -0.7600   -1.9000   33.9490 O.2   506  ILE506     -0.2867
    134  CB        -2.2110   -1.2770   36.7570 C.3   506  ILE506      0.0252
    135  CG1       -0.7150   -1.2950   37.1020 C.3   506  ILE506      0.0019
    136  CG2       -2.8510   -2.6590   36.9980 C.3   506  ILE506      0.0019
    137  CD1       -0.4060   -1.6670   38.5570 C.3   506  ILE506      0.0001
@<TRIPOS>BOND
     1   133   132    2
     2   132   131    1
     3   130   131    1
     4   131   134    1
     5   114   113    2
     6   134   136    1
     7   134   135    1
     8   135   137    1
     9   117   116   ar
    10    44    43    2
    11   122   121    2
    12   113   112    1
    13   113   119   am
    14   112   115    1
    15   112   111    1
    16   115   116    1
    17    43    45   am
    18    43    42    1
    19   116   118   ar
    20   121   120    1
    21    42    39    1
    22   119   120    1
    23   120   123    1
    24    21    22    1
    25    27    25    1
    26    22    25    1
    27    22    23    1
    28    39    38    1
    29    39    40    1
    30    31    30    2
    31   123   124    1
    32    38    30   am
    33    52    46    1
    34    52    51    1
    35    30    29    1
    36    28    23   am
    37    28    29    1
    38    25    26    1
    39    23    24    2
    40   124   125    1
    41    54    55    1
    42    54    53    1
    43    54    57    1
    44   110   109    2
    45    40    46   am
    46    40    41    2
    47    46    47    1
    48    55    56    2
    49    29    32    1
    50    57    58    1
    51    51    50    1
    52    87    86    1
    53   109   108    1
    54   125   126    1
    55    88    86    1
    56    50    47    1
    57    47    48    1
    58    48    49    2
    59    32    33    1
    60   126   127    2
    61    86    85    1
    62    64    65    1
    63    58    60   ar
    64    58    59   ar
    65   108   107    1
    66    34    33   ar
    67    34    36   ar
    68    60    62   ar
    69    33    35   ar
    70    67    66    2
    71    59    61   ar
    72    85    82    1
    73   127   129    1
    74   127   128    1
    75    66    65    1
    76    65    68    1
    77    75    74    2
    78    82    81    1
    79    82    83    1
    80    36    37   ar
    81    15    14    2
    82    35    37   ar
    83    62    63   ar
    84    84    83    2
    85    61    63   ar
    86    74    81   am
    87    74    73    1
    88    72    73    1
    89    68    69    1
    90    83    89   am
    91    14    13    1
    92    69    70    1
    93     4     3    2
    94    73    76    1
    95     1     2    1
    96    89    90    1
    97    12    13    1
    98    13    16    1
    99     3     2    1
   100    76    77    1
   101    93    90    1
   102    93    94    1
   103    70    71    1
   104    90    91    1
   105     2     5    1
   106   105   106    2
   107   105   104    1
   108    16    17    1
   109     5     6    1
   110    77    78    1
   111     6     7    1
   112   104   103    1
   113     7     8    1
   114    91    92    2
   115    91    95   am
   116    19    18   ar
   117    17    18    1
   118    78    80   ar
   119    78    79   ar
   120     8     9    2
   121    10     9    1
   122     9    11    1
   123    95    96    1
   124    18    20   ar
   125    96    99    1
   126    96    97    1
   127    98    97    2
   128    99   100    1
   129   100   102   am
   130   100   101    2
