@<TRIPOS>MOLECULE
tmp/6ns0B01.pdb
 158 151 0 0 0
SMALL
GASTEIGER

@<TRIPOS>ATOM
      1  N         17.8300  -17.4060   41.8110 N.3   268  ARG268     -0.1245
      2  CA        18.2160  -18.7880   41.5640 C.3   268  ARG268      0.1563
      3  C         18.3200  -19.4960   42.9060 C.2   268  ARG268      0.2260
      4  O         19.0730  -19.0610   43.7850 O.2   268  ARG268     -0.2867
      5  CB        19.5190  -18.8460   40.7690 C.3   268  ARG268      0.0307
      6  CG        19.3670  -18.0720   39.4710 C.3   268  ARG268      0.0489
      7  CD        20.4850  -18.2590   38.4800 C.3   268  ARG268      0.2205
      8  NE        20.2300  -17.4130   37.3270 N.pl3 268  ARG268     -0.0865
      9  CZ        21.0040  -17.3440   36.2550 C.cat 268  ARG268      0.5346
     10  NH1       22.0890  -18.1070   36.1720 N.pl3 268  ARG268      0.1354
     11  NH2       20.6910  -16.5020   35.2720 N.pl3 268  ARG268      0.1354
     12  N         19.7110  -21.7490   44.6920 N.3   270  GLU270     -0.1231
     13  CA        20.9220  -22.5640   44.6580 C.3   270  GLU270      0.1699
     14  C         21.7530  -22.2750   45.9060 C.2   270  GLU270      0.2592
     15  O         21.2650  -21.7570   46.9200 O.2   270  GLU270     -0.2718
     16  CB        21.7180  -22.2960   43.3730 C.3   270  GLU270      0.0402
     17  CG        20.9890  -22.6700   42.1040 C.3   270  GLU270      0.1161
     18  CD        21.7230  -22.2390   40.8330 C.2   270  GLU270      0.3649
     19  OE1       22.1660  -21.0650   40.7330 O.co2 270  GLU270     -0.2457
     20  OE2       21.8480  -23.0930   39.9300 O.co2 270  GLU270     -0.2457
     21  N         23.0420  -22.5980   45.8340 N.am  271  GLY271     -0.1957
     22  CA        23.9020  -22.4700   46.9900 C.3   271  GLY271      0.1869
     23  C         24.3320  -21.0380   47.2470 C.2   271  GLY271      0.2309
     24  O         24.2000  -20.1500   46.4090 O.2   271  GLY271     -0.2863
     25  N         30.6250  -16.2050   45.7120 N.3   275  THR275     -0.1203
     26  CA        30.1890  -15.6490   44.4250 C.3   275  THR275      0.1994
     27  C         28.7200  -15.9070   44.1070 C.2   275  THR275      0.2618
     28  O         28.3040  -15.6830   42.9680 O.2   275  THR275     -0.2717
     29  CB        31.0550  -16.1870   43.2780 C.3   275  THR275      0.1784
     30  OG1       30.9590  -17.6180   43.2210 O.3   275  THR275     -0.2211
     31  CG2       32.5050  -15.7990   43.4920 C.3   275  THR275      0.0376
     32  N         27.9230  -16.3730   45.0700 N.am  276  HIS276     -0.1961
     33  CA        26.5360  -16.7500   44.8100 C.3   276  HIS276      0.1787
     34  C         25.6540  -16.2460   45.9400 C.2   276  HIS276      0.2620
     35  O         25.7960  -16.6860   47.0850 O.2   276  HIS276     -0.2715
     36  CB        26.3810  -18.2710   44.6730 C.3   276  HIS276      0.0785
     37  CG        27.0530  -18.8470   43.4660 C.ar  276  HIS276      0.0821
     38  ND1       28.3880  -19.1890   43.4490 N.ar  276  HIS276     -0.2267
     39  CD2       26.5720  -19.1410   42.2320 C.ar  276  HIS276      0.1154
     40  CE1       28.6970  -19.6870   42.2630 C.ar  276  HIS276      0.1986
     41  NE2       27.6130  -19.6690   41.5060 N.ar  276  HIS276     -0.2212
     42  N         24.7430  -15.3360   45.6160 N.am  277  ASN277     -0.1959
     43  CA        23.6560  -14.9980   46.5010 C.3   277  ASN277      0.1804
     44  C         22.3580  -15.2940   45.7640 C.2   277  ASN277      0.2463
     45  O         22.1920  -14.8390   44.6210 O.2   277  ASN277     -0.2730
     46  CB        23.7230  -13.5000   46.9160 C.3   277  ASN277      0.1195
     47  CG        22.7940  -13.1630   48.0750 C.2   277  ASN277      0.2630
     48  OD1       23.1180  -13.4110   49.2440 O.2   277  ASN277     -0.2716
     49  ND2       21.6440  -12.5620   47.7600 N.am  277  ASN277     -0.0877
     50  N         21.4240  -16.0460   46.3630 N.am  278  PRO278     -0.2727
     51  CA        20.2240  -16.4830   45.6110 C.3   278  PRO278      0.1402
     52  C         19.4460  -15.3480   44.9470 C.2   278  PRO278      0.2269
     53  O         18.8200  -15.5510   43.8960 O.2   278  PRO278     -0.2865
     54  CB        19.3890  -17.1970   46.6830 C.3   278  PRO278      0.0296
     55  CG        20.4320  -17.7370   47.6600 C.3   278  PRO278      0.0237
     56  CD        21.4800  -16.6290   47.7150 C.3   278  PRO278      0.0939
     57  N         20.1880  -11.8510   43.1250 N.3   280  PHE280     -0.1241
     58  CA        21.2730  -11.0260   42.6180 C.3   280  PHE280      0.1605
     59  C         20.7570  -10.1570   41.4750 C.2   280  PHE280      0.2264
     60  O         19.6290  -10.3160   40.9950 O.2   280  PHE280     -0.2867
     61  CB        22.4880  -11.8870   42.2190 C.3   280  PHE280      0.0534
     62  CG        22.2380  -12.8390   41.0790 C.ar  280  PHE280     -0.0203
     63  CD1       21.6420  -14.0730   41.3010 C.ar  280  PHE280     -0.0042
     64  CD2       22.6480  -12.5220   39.7950 C.ar  280  PHE280     -0.0042
     65  CE1       21.4360  -14.9660   40.2590 C.ar  280  PHE280     -0.0003
     66  CE2       22.4500  -13.4120   38.7350 C.ar  280  PHE280     -0.0003
     67  CZ        21.8400  -14.6320   38.9660 C.ar  280  PHE280     -0.0000
     68  N         21.1010   -8.5200   37.7030 N.3   282  MET282     -0.1245
     69  CA        21.6020   -8.7010   36.3490 C.3   282  MET282      0.1570
     70  C         21.2350   -7.5010   35.4970 C.2   282  MET282      0.2261
     71  O         20.1560   -6.9240   35.6460 O.2   282  MET282     -0.2867
     72  CB        20.9940   -9.9310   35.6500 C.3   282  MET282      0.0387
     73  CG        21.4320  -11.2850   36.1410 C.3   282  MET282      0.0595
     74  SD        20.7940  -12.5880   35.0450 S.3   282  MET282     -0.1393
     75  CE        19.4560  -11.7890   34.1960 C.3   282  MET282      0.0692
     76  N         31.3110  -16.2670   26.6440 N.3   428  GLU428     -0.1245
     77  CA        31.2540  -15.9610   28.0650 C.3   428  GLU428      0.1567
     78  C         32.5050  -15.1790   28.4230 C.2   428  GLU428      0.2260
     79  O         33.6090  -15.5220   27.9850 O.2   428  GLU428     -0.2867
     80  CB        31.1580  -17.2340   28.9310 C.3   428  GLU428      0.0388
     81  CG        29.7480  -17.7560   29.1570 C.3   428  GLU428      0.1160
     82  CD        29.7370  -19.0680   29.9340 C.2   428  GLU428      0.3649
     83  OE1       30.4230  -20.0160   29.5080 O.co2 428  GLU428     -0.2457
     84  OE2       29.0560  -19.1500   30.9790 O.co2 428  GLU428     -0.2457
     85  N         32.9470  -16.1980   36.0710 N.3   435  GLU435     -0.1231
     86  CA        32.2000  -15.7850   34.8940 C.3   435  GLU435      0.1699
     87  C         31.5160  -14.4430   35.1460 C.2   435  GLU435      0.2592
     88  O         30.9540  -14.1890   36.2180 O.2   435  GLU435     -0.2718
     89  CB        31.1870  -16.8620   34.4750 C.3   435  GLU435      0.0402
     90  CG        30.1640  -17.2900   35.5310 C.3   435  GLU435      0.1161
     91  CD        30.7000  -18.3000   36.5590 C.2   435  GLU435      0.3649
     92  OE1       31.9020  -18.6480   36.5110 O.co2 435  GLU435     -0.2457
     93  OE2       29.9080  -18.7410   37.4250 O.co2 435  GLU435     -0.2457
     94  N         31.5910  -13.5770   34.1510 N.am  436  LEU436     -0.1966
     95  CA        31.0840  -12.2210   34.2470 C.3   436  LEU436      0.1728
     96  C         29.9700  -11.9200   33.2570 C.2   436  LEU436      0.2616
     97  O         29.0620  -11.1670   33.5900 O.2   436  LEU436     -0.2715
     98  CB        32.2390  -11.2330   34.0370 C.3   436  LEU436      0.0311
     99  CG        31.9670   -9.7440   34.0330 C.3   436  LEU436      0.0022
    100  CD1       31.4020   -9.3250   35.3770 C.3   436  LEU436      0.0001
    101  CD2       33.2600   -9.0050   33.7160 C.3   436  LEU436      0.0001
    102  N         29.9920  -12.5220   32.0690 N.am  437  CYS437     -0.1954
    103  CA        29.0490  -12.1700   31.0200 C.3   437  CYS437      0.1843
    104  C         28.6940  -13.4040   30.2010 C.2   437  CYS437      0.2625
    105  O         29.5280  -14.2800   29.9860 O.2   437  CYS437     -0.2714
    106  CB        29.6340  -11.0850   30.1110 C.3   437  CYS437      0.0997
    107  SG        28.5490  -10.5680   28.7870 S.3   437  CYS437     -0.0797
    108  N         27.4530  -13.4550   29.7320 N.am  438  ASN438     -0.1972
    109  CA        26.9870  -14.4990   28.8270 C.3   438  ASN438      0.1688
    110  C         26.2490  -13.8180   27.6760 C.2   438  ASN438      0.2292
    111  O         25.4260  -12.9280   27.9140 O.2   438  ASN438     -0.2864
    112  CB        26.0800  -15.4830   29.5720 C.3   438  ASN438      0.1181
    113  CG        25.6920  -16.6790   28.7350 C.2   438  ASN438      0.2629
    114  OD1       26.4630  -17.1430   27.8970 O.2   438  ASN438     -0.2716
    115  ND2       24.4840  -17.1860   28.9580 N.am  438  ASN438     -0.0877
    116  N         24.1510  -10.7940   29.0460 N.3   490  GLY490     -0.1210
    117  CA        23.7890  -10.6350   30.4450 C.3   490  GLY490      0.1956
    118  C         25.0390  -10.5270   31.2870 C.2   490  GLY490      0.2612
    119  O         26.0210  -11.2240   31.0500 O.2   490  GLY490     -0.2717
    120  N         25.0070   -9.6270   32.2600 N.am  491  ILE491     -0.1965
    121  CA        26.1540   -9.4140   33.1310 C.3   491  ILE491      0.1727
    122  C         25.6930   -9.5230   34.5770 C.2   491  ILE491      0.2616
    123  O         24.6730   -8.9350   34.9560 O.2   491  ILE491     -0.2715
    124  CB        26.8270   -8.0510   32.8640 C.3   491  ILE491      0.0290
    125  CG1       27.5900   -8.0950   31.5400 C.3   491  ILE491      0.0022
    126  CG2       27.7620   -7.6660   34.0130 C.3   491  ILE491      0.0023
    127  CD1       28.2690   -6.7780   31.1700 C.3   491  ILE491      0.0001
    128  N         26.4250  -10.2970   35.3740 N.am  492  GLY492     -0.1955
    129  CA        26.2110  -10.3090   36.8070 C.3   492  GLY492      0.1869
    130  C         26.7870   -9.0580   37.4440 C.2   492  GLY492      0.2309
    131  O         28.0040   -8.9350   37.6320 O.2   492  GLY492     -0.2863
    132  N         26.5720   -7.7510   40.4490 N.3   494  ASP494     -0.1225
    133  CA        27.2030   -7.9040   41.7570 C.3   494  ASP494      0.1805
    134  C         28.6470   -8.3730   41.6160 C.2   494  ASP494      0.2597
    135  O         29.5410   -7.8610   42.3030 O.2   494  ASP494     -0.2718
    136  CB        26.3850   -8.8700   42.6220 C.3   494  ASP494      0.1424
    137  CG        24.9030   -8.4940   42.6720 C.2   494  ASP494      0.3668
    138  OD1       24.5440   -7.4720   43.3120 O.co2 494  ASP494     -0.2456
    139  OD2       24.0960   -9.2000   42.0370 O.co2 494  ASP494     -0.2456
    140  N         28.9030   -9.3190   40.7030 N.am  495  ARG495     -0.1979
    141  CA        30.2700   -9.7880   40.4830 C.3   495  ARG495      0.1597
    142  C         31.1470   -8.6970   39.8800 C.2   495  ARG495      0.2287
    143  O         32.3320   -8.5900   40.2210 O.2   495  ARG495     -0.2864
    144  CB        30.2730  -11.0280   39.5890 C.3   495  ARG495      0.0334
    145  CG        29.6720  -12.2490   40.2640 C.3   495  ARG495      0.0492
    146  CD        29.8350  -13.4990   39.4460 C.3   495  ARG495      0.2205
    147  NE        29.2800  -14.6580   40.1440 N.pl3 495  ARG495     -0.0865
    148  CZ        29.2700  -15.8920   39.6470 C.cat 495  ARG495      0.5346
    149  NH1       29.7860  -16.1220   38.4480 N.pl3 495  ARG495      0.1354
    150  NH2       28.7450  -16.8910   40.3440 N.pl3 495  ARG495      0.1354
    151  N         30.6850  -11.6200   47.5500 N.3   506  ILE506     -0.1245
    152  CA        29.4530  -10.9500   47.1530 C.3   506  ILE506      0.1561
    153  C         28.6920  -10.4170   48.3640 C.2   506  ILE506      0.2260
    154  O         27.9430   -9.4440   48.2410 O.2   506  ILE506     -0.2867
    155  CB        28.5870  -11.9080   46.3050 C.3   506  ILE506      0.0252
    156  CG1       27.4750  -11.1540   45.5790 C.3   506  ILE506      0.0019
    157  CG2       28.0270  -13.0810   47.1500 C.3   506  ILE506      0.0019
    158  CD1       26.7590  -12.0500   44.5650 C.3   506  ILE506      0.0001
@<TRIPOS>BOND
     1    76    77    1
     2   110   111    2
     3   110   109    1
     4   114   113    2
     5    79    78    2
     6    77    78    1
     7    77    80    1
     8   113   115   am
     9   113   112    1
    10   107   106    1
    11   109   112    1
    12   109   108    1
    13    80    81    1
    14   116   117    1
    15    81    82    1
    16    83    82   ar
    17   108   104   am
    18    82    84   ar
    19   105   104    2
    20   106   103    1
    21   104   103    1
    22   117   118    1
    23   103   102    1
    24   119   118    2
    25   127   125    1
    26   118   120   am
    27   125   124    1
    28   102    96   am
    29   120   121    1
    30   124   121    1
    31   124   126    1
    32   121   122    1
    33    96    97    2
    34    96    95    1
    35   101    99    1
    36    99    98    1
    37    99   100    1
    38    98    95    1
    39    94    95    1
    40    94    87   am
    41    75    74    1
    42    89    86    1
    43    89    90    1
    44   122   123    2
    45   122   128   am
    46    86    87    1
    47    86    85    1
    48    74    73    1
    49    87    88    2
    50    11     9    1
    51   128   129    1
    52    70    71    2
    53    70    69    1
    54    90    91    1
    55    72    73    1
    56    72    69    1
    57    10     9    1
    58     9     8    2
    59    69    68    1
    60    92    91   ar
    61    91    93   ar
    62   129   130    1
    63     8     7    1
    64   130   131    2
    65   149   148    1
    66     7     6    1
    67    66    67   ar
    68    66    64   ar
    69    67    65   ar
    70   146   147    1
    71   146   145    1
    72     6     5    1
    73   144   145    1
    74   144   141    1
    75   148   147    2
    76   148   150    1
    77    64    62   ar
    78   142   143    2
    79   142   141    1
    80    20    18   ar
    81    65    63   ar
    82   132   133    1
    83   141   140    1
    84   140   134   am
    85    19    18   ar
    86     5     2    1
    87    18    17    1
    88    60    59    2
    89    62    63   ar
    90    62    61    1
    91    59    58    1
    92    41    39   ar
    93    41    40   ar
    94     2     1    1
    95     2     3    1
    96   134   133    1
    97   134   135    2
    98   133   136    1
    99   139   137   ar
   100    17    16    1
   101    61    58    1
   102    39    37   ar
   103    40    38   ar
   104    58    57    1
   105   136   137    1
   106   137   138   ar
   107     3     4    2
   108    28    27    2
   109    30    29    1
   110    29    31    1
   111    29    26    1
   112    16    13    1
   113    38    37   ar
   114    37    36    1
   115    53    52    2
   116    27    26    1
   117    27    32   am
   118    26    25    1
   119   158   156    1
   120    45    44    2
   121    13    12    1
   122    13    14    1
   123    36    33    1
   124    33    32    1
   125    33    34    1
   126    52    51    1
   127   156   155    1
   128    51    50    1
   129    51    54    1
   130    42    34   am
   131    42    43    1
   132    44    50   am
   133    44    43    1
   134    21    14   am
   135    21    22    1
   136    14    15    2
   137    34    35    2
   138   155   157    1
   139   155   152    1
   140    50    56    1
   141    24    23    2
   142    43    46    1
   143    54    55    1
   144    46    47    1
   145    22    23    1
   146   152   151    1
   147   152   153    1
   148    55    56    1
   149    49    47   am
   150    47    48    2
   151   154   153    2
