@<TRIPOS>MOLECULE
tmp/6ns0B02.pdb
 148 142 0 0 0
SMALL
GASTEIGER

@<TRIPOS>ATOM
      1  N          9.5330  -20.1670   33.6100 N.3   220  TYR220     -0.1227
      2  CA        10.8600  -19.6360   33.8700 C.3   220  TYR220      0.1736
      3  C         11.7920  -20.2130   32.8210 C.2   220  TYR220      0.2596
      4  O         11.5260  -21.2780   32.2600 O.2   220  TYR220     -0.2718
      5  CB        11.3550  -19.9850   35.2800 C.3   220  TYR220      0.0548
      6  CG        11.5500  -21.4700   35.5130 C.ar  220  TYR220     -0.0200
      7  CD1       10.4800  -22.2830   35.8710 C.ar  220  TYR220     -0.0009
      8  CD2       12.8060  -22.0610   35.3740 C.ar  220  TYR220     -0.0009
      9  CE1       10.6540  -23.6400   36.0880 C.ar  220  TYR220      0.0417
     10  CE2       12.9890  -23.4180   35.5890 C.ar  220  TYR220      0.0417
     11  CZ        11.9110  -24.2010   35.9480 C.ar  220  TYR220      0.1957
     12  OH        12.0840  -25.5480   36.1650 O.3   220  TYR220     -0.2866
     13  N         12.8780  -19.5040   32.5490 N.am  221  GLY221     -0.1942
     14  CA        13.8040  -19.9760   31.5430 C.3   221  GLY221      0.2014
     15  C         14.8600  -18.9340   31.2610 C.2   221  GLY221      0.2639
     16  O         14.9860  -17.9390   31.9780 O.2   221  GLY221     -0.2714
     17  N         15.6180  -19.1890   30.1970 N.am  222  GLY222     -0.1939
     18  CA        16.7400  -18.3440   29.8490 C.3   222  GLY222      0.2014
     19  C         18.0000  -18.6100   30.6350 C.2   222  GLY222      0.2639
     20  O         18.9490  -17.8240   30.5380 O.2   222  GLY222     -0.2714
     21  N         18.0400  -19.6890   31.4060 N.am  223  ALA223     -0.1963
     22  CA        19.2140  -20.0730   32.1830 C.3   223  ALA223      0.1728
     23  C         18.9620  -21.4800   32.7070 C.2   223  ALA223      0.2616
     24  O         17.8960  -22.0630   32.4850 O.2   223  ALA223     -0.2715
     25  CB        19.5000  -19.0830   33.3200 C.3   223  ALA223      0.0334
     26  N         19.9580  -22.0260   33.3980 N.am  224  GLU224     -0.1977
     27  CA        19.8800  -23.3710   33.9730 C.3   224  GLU224      0.1602
     28  C         19.9520  -23.2220   35.4880 C.2   224  GLU224      0.2287
     29  O         21.0440  -23.0920   36.0510 O.2   224  GLU224     -0.2864
     30  CB        20.9990  -24.2640   33.4420 C.3   224  GLU224      0.0415
     31  CG        21.0070  -24.2460   31.9180 C.3   224  GLU224      0.1163
     32  CD        19.9310  -25.0750   31.2710 C.2   224  GLU224      0.3649
     33  OE1       19.1630  -25.6950   32.0100 O.co2 224  GLU224     -0.2457
     34  OE2       19.8520  -25.1090   30.0050 O.co2 224  GLU224     -0.2457
     35  N         13.6940  -14.1940   28.0730 N.3   247  ILE247     -0.1245
     36  CA        12.4970  -14.4320   27.2660 C.3   247  ILE247      0.1561
     37  C         11.6560  -13.1660   27.1590 C.2   247  ILE247      0.2260
     38  O         11.1080  -12.8510   26.0920 O.2   247  ILE247     -0.2867
     39  CB        11.6730  -15.5960   27.8420 C.3   247  ILE247      0.0252
     40  CG1       12.5000  -16.8950   27.8560 C.3   247  ILE247      0.0019
     41  CG2       10.3560  -15.7490   27.0730 C.3   247  ILE247      0.0019
     42  CD1       13.1190  -17.2480   26.5310 C.3   247  ILE247      0.0001
     43  N         25.4870  -26.4150   25.2920 N.3   409  THR409     -0.1203
     44  CA        25.5170  -25.4800   26.4150 C.3   409  THR409      0.1994
     45  C         24.3100  -24.5480   26.4630 C.2   409  THR409      0.2619
     46  O         24.0660  -23.9440   27.5090 O.2   409  THR409     -0.2717
     47  CB        26.7950  -24.6490   26.3860 C.3   409  THR409      0.1784
     48  OG1       26.7760  -23.7840   25.2440 O.3   409  THR409     -0.2211
     49  CG2       28.0170  -25.5560   26.3250 C.3   409  THR409      0.0376
     50  N         23.5500  -24.4060   25.3760 N.am  410  THR410     -0.1939
     51  CA        22.3650  -23.5550   25.4160 C.3   410  THR410      0.2013
     52  C         21.4730  -23.8630   24.2220 C.2   410  THR410      0.2484
     53  O         21.9730  -24.2260   23.1560 O.2   410  THR410     -0.2729
     54  CB        22.7400  -22.0620   25.4190 C.3   410  THR410      0.1807
     55  OG1       21.5460  -21.2730   25.3670 O.3   410  THR410     -0.2208
     56  CG2       23.6180  -21.7150   24.2180 C.3   410  THR410      0.0379
     57  N         20.1530  -23.7250   24.3670 N.am  411  PRO411     -0.2715
     58  CA        19.2320  -23.8690   23.2290 C.3   411  PRO411      0.1536
     59  C         18.7610  -22.5580   22.5980 C.2   411  PRO411      0.2598
     60  O         17.8260  -22.6000   21.7910 O.2   411  PRO411     -0.2715
     61  CB        18.0450  -24.5810   23.8850 C.3   411  PRO411      0.0310
     62  CG        17.9810  -23.9210   25.2480 C.3   411  PRO411      0.0237
     63  CD        19.4290  -23.6750   25.6530 C.3   411  PRO411      0.0939
     64  N         19.3520  -21.4130   22.9430 N.am  412  LEU412     -0.1978
     65  CA        18.8180  -20.1190   22.5270 C.3   412  LEU412      0.1596
     66  C         19.7670  -19.3480   21.6150 C.2   412  LEU412      0.2287
     67  O         19.5740  -18.1470   21.3990 O.2   412  LEU412     -0.2864
     68  CB        18.4790  -19.2760   23.7540 C.3   412  LEU412      0.0297
     69  CG        17.4180  -19.8790   24.6630 C.3   412  LEU412      0.0022
     70  CD1       17.3680  -19.1440   25.9920 C.3   412  LEU412      0.0001
     71  CD2       16.0790  -19.8420   23.9680 C.3   412  LEU412      0.0001
     72  N         28.2280  -18.2330   20.8040 N.3   426  ARG426     -0.1245
     73  CA        28.1160  -17.7770   22.1780 C.3   426  ARG426      0.1563
     74  C         29.4800  -17.2880   22.6450 C.2   426  ARG426      0.2260
     75  O         30.5170  -17.7540   22.1640 O.2   426  ARG426     -0.2867
     76  CB        27.6200  -18.9190   23.0790 C.3   426  ARG426      0.0307
     77  CG        27.6610  -18.6400   24.5760 C.3   426  ARG426      0.0489
     78  CD        27.0980  -19.7990   25.3730 C.3   426  ARG426      0.2205
     79  NE        27.0140  -19.4790   26.7950 N.pl3 426  ARG426     -0.0865
     80  CZ        26.7660  -20.3690   27.7500 C.cat 426  ARG426      0.5346
     81  NH1       26.5860  -21.6410   27.4300 N.pl3 426  ARG426      0.1354
     82  NH2       26.7020  -19.9890   29.0210 N.pl3 426  ARG426      0.1354
     83  N         27.4530  -13.4550   29.7320 N.3   438  ASN438     -0.1240
     84  CA        26.9870  -14.4990   28.8270 C.3   438  ASN438      0.1653
     85  C         26.2490  -13.8180   27.6760 C.2   438  ASN438      0.2266
     86  O         25.4260  -12.9280   27.9140 O.2   438  ASN438     -0.2867
     87  CB        26.0800  -15.4830   29.5720 C.3   438  ASN438      0.1155
     88  CG        25.6920  -16.6790   28.7350 C.2   438  ASN438      0.2627
     89  OD1       26.4630  -17.1430   27.8970 O.2   438  ASN438     -0.2716
     90  ND2       24.4840  -17.1860   28.9580 N.am  438  ASN438     -0.0877
     91  N         24.9170  -14.1200   23.2250 N.3   440  TYR440     -0.1241
     92  CA        24.6050  -14.9150   22.0350 C.3   440  TYR440      0.1605
     93  C         24.4040  -14.0400   20.7980 C.2   440  TYR440      0.2264
     94  O         24.0410  -12.8560   20.8850 O.2   440  TYR440     -0.2867
     95  CB        23.3050  -15.7380   22.1810 C.3   440  TYR440      0.0534
     96  CG        23.1220  -16.5600   23.4470 C.ar  440  TYR440     -0.0201
     97  CD1       24.2020  -17.1290   24.1190 C.ar  440  TYR440     -0.0009
     98  CD2       21.8440  -16.7790   23.9560 C.ar  440  TYR440     -0.0009
     99  CE1       24.0080  -17.8770   25.2770 C.ar  440  TYR440      0.0417
    100  CE2       21.6410  -17.5230   25.0930 C.ar  440  TYR440      0.0417
    101  CZ        22.7240  -18.0730   25.7470 C.ar  440  TYR440      0.1957
    102  OH        22.5010  -18.8030   26.8800 O.3   440  TYR440     -0.2866
    103  N         14.3780  -26.7270   21.9900 N.3   453  LEU453     -0.1245
    104  CA        13.7120  -26.7870   23.2860 C.3   453  LEU453      0.1561
    105  C         13.0740  -28.1440   23.5130 C.2   453  LEU453      0.2260
    106  O         13.0040  -28.6110   24.6530 O.2   453  LEU453     -0.2867
    107  CB        12.6600  -25.6880   23.4030 C.3   453  LEU453      0.0270
    108  CG        13.2070  -24.2620   23.4540 C.3   453  LEU453      0.0019
    109  CD1       12.0720  -23.2530   23.4130 C.3   453  LEU453      0.0001
    110  CD2       14.0550  -24.0620   24.7020 C.3   453  LEU453      0.0001
    111  N         15.8990  -30.4050   24.4320 N.3   456  GLN456     -0.1245
    112  CA        16.3840  -30.1550   25.7860 C.3   456  GLN456      0.1566
    113  C         15.4360  -30.7470   26.8240 C.2   456  GLN456      0.2260
    114  O         15.8770  -31.3720   27.7960 O.2   456  GLN456     -0.2867
    115  CB        16.5700  -28.6590   26.0280 C.3   456  GLN456      0.0367
    116  CG        17.0440  -28.3570   27.4380 C.3   456  GLN456      0.0905
    117  CD        17.0640  -26.8810   27.7580 C.2   456  GLN456      0.2608
    118  OE1       16.0410  -26.1980   27.6820 O.2   456  GLN456     -0.2717
    119  NE2       18.2340  -26.3790   28.1290 N.am  456  GLN456     -0.0878
    120  N         10.1980  -28.4750   33.1630 N.3   469  HIS469     -0.1241
    121  CA         9.6010  -27.2440   32.6780 C.3   469  HIS469      0.1621
    122  C          8.9630  -27.4950   31.3190 C.2   469  HIS469      0.2264
    123  O          9.6120  -28.0560   30.4240 O.2   469  HIS469     -0.2867
    124  CB        10.6480  -26.1250   32.5780 C.3   469  HIS469      0.0745
    125  CG        10.0760  -24.8250   31.9620 C.ar  469  HIS469      0.0817
    126  ND1       10.2360  -24.3990   30.7140 N.ar  469  HIS469     -0.2268
    127  CD2        9.3420  -23.8830   32.6710 C.ar  469  HIS469      0.1154
    128  CE1        9.5780  -23.2160   30.5910 C.ar  469  HIS469      0.1986
    129  NE2        9.0820  -22.9590   31.7900 N.ar  469  HIS469     -0.2212
    130  N          7.8670  -23.3730   26.4670 N.3   472  ASP472     -0.1239
    131  CA         7.2810  -22.0380   26.4560 C.3   472  ASP472      0.1674
    132  C          6.6540  -21.6820   25.1060 C.2   472  ASP472      0.2266
    133  O          7.3220  -21.1220   24.2330 O.2   472  ASP472     -0.2867
    134  CB         8.3400  -21.0110   26.8360 C.3   472  ASP472      0.1410
    135  CG         7.7470  -19.6660   27.1380 C.2   472  ASP472      0.3668
    136  OD1        6.5420  -19.4890   26.8570 O.co2 472  ASP472     -0.2456
    137  OD2        8.4720  -18.7930   27.6690 O.co2 472  ASP472     -0.2456
    138  N          6.5180  -18.0070   23.8410 N.3   475  PHE475     -0.1241
    139  CA         7.7850  -17.5640   23.2760 C.3   475  PHE475      0.1605
    140  C          7.9360  -18.0260   21.8260 C.2   475  PHE475      0.2264
    141  O          8.3490  -17.2440   20.9580 O.2   475  PHE475     -0.2867
    142  CB         8.9320  -18.0620   24.1470 C.3   475  PHE475      0.0534
    143  CG        10.2850  -17.7620   23.5970 C.ar  475  PHE475     -0.0203
    144  CD1       10.6620  -16.4600   23.3210 C.ar  475  PHE475     -0.0042
    145  CD2       11.1930  -18.7850   23.3700 C.ar  475  PHE475     -0.0042
    146  CE1       11.9170  -16.1820   22.8170 C.ar  475  PHE475     -0.0003
    147  CE2       12.4490  -18.5130   22.8580 C.ar  475  PHE475     -0.0003
    148  CZ        12.8070  -17.2080   22.5770 C.ar  475  PHE475     -0.0000
@<TRIPOS>BOND
     1    93    94    2
     2    93    92    1
     3    72    73    1
     4   141   140    2
     5    67    66    2
     6    66    65    1
     7    60    59    2
     8   140   139    1
     9   103   104    1
    10    92    95    1
    11    92    91    1
    12    75    74    2
    13    73    74    1
    14    73    76    1
    15    95    96    1
    16    65    64    1
    17    65    68    1
    18   148   146   ar
    19   148   147   ar
    20    59    64   am
    21    59    58    1
    22   146   144   ar
    23   147   145   ar
    24    76    77    1
    25    53    52    2
    26    58    61    1
    27    58    57    1
    28   139   138    1
    29   139   142    1
    30   104   107    1
    31   104   105    1
    32   144   143   ar
    33   145   143   ar
    34   107   108    1
    35   109   108    1
    36    96    98   ar
    37    96    97   ar
    38   108   110    1
    39   105   106    2
    40   143   142    1
    41    68    69    1
    42    61    62    1
    43    98   100   ar
    44    71    69    1
    45    97    99   ar
    46    56    54    1
    47    52    57   am
    48    52    51    1
    49   133   132    2
    50    57    63    1
    51   111   112    1
    52    77    78    1
    53    69    70    1
    54   100   101   ar
    55   132   131    1
    56    48    47    1
    57    62    63    1
    58    99   101   ar
    59    43    44    1
    60    55    54    1
    61    78    79    1
    62    50    51    1
    63    50    45   am
    64    51    54    1
    65   101   102    1
    66   112   115    1
    67   112   113    1
    68   115   116    1
    69    38    37    2
    70    49    47    1
    71    47    44    1
    72    44    45    1
    73   131   130    1
    74   131   134    1
    75    45    46    2
    76    42    40    1
    77    79    80    2
    78   113   114    2
    79   134   135    1
    80   136   135   ar
    81    41    39    1
    82   135   137   ar
    83    37    36    1
    84    36    39    1
    85    36    35    1
    86    81    80    1
    87   116   117    1
    88    85    86    2
    89    85    84    1
    90   118   117    2
    91    80    82    1
    92   117   119   am
    93    39    40    1
    94    89    88    2
    95    88    90   am
    96    88    87    1
    97    84    87    1
    98    84    83    1
    99    18    17    1
   100    18    19    1
   101    34    32   ar
   102    17    15   am
   103   123   122    2
   104    20    19    2
   105   128   126   ar
   106   128   129   ar
   107    19    21   am
   108   126   125   ar
   109    15    14    1
   110    15    16    2
   111    32    31    1
   112    32    33   ar
   113   122   121    1
   114    21    22    1
   115    14    13    1
   116   129   127   ar
   117    31    30    1
   118   125   124    1
   119   125   127   ar
   120    22    23    1
   121    22    25    1
   122     4     3    2
   123    24    23    2
   124    13     3   am
   125   124   121    1
   126   121   120    1
   127    23    26   am
   128     3     2    1
   129    26    27    1
   130    30    27    1
   131     1     2    1
   132     2     5    1
   133    27    28    1
   134     5     6    1
   135     8     6   ar
   136     8    10   ar
   137    28    29    2
   138     6     7   ar
   139    10    11   ar
   140     7     9   ar
   141    11     9   ar
   142    11    12    1
