@<TRIPOS>MOLECULE
tmp/6ns0B00.pdb
 112 104 0 0 0
SMALL
GASTEIGER

@<TRIPOS>ATOM
      1  N         15.6180  -19.1890   30.1970 N.3   222  GLY222     -0.1210
      2  CA        16.7400  -18.3440   29.8490 C.3   222  GLY222      0.1956
      3  C         18.0000  -18.6100   30.6350 C.2   222  GLY222      0.2611
      4  O         18.9490  -17.8240   30.5380 O.2   222  GLY222     -0.2717
      5  N         18.0400  -19.6890   31.4060 N.am  223  ALA223     -0.1979
      6  CA        19.2140  -20.0730   32.1830 C.3   223  ALA223      0.1597
      7  C         18.9620  -21.4800   32.7070 C.2   223  ALA223      0.2287
      8  O         17.8960  -22.0630   32.4850 O.2   223  ALA223     -0.2864
      9  CB        19.5000  -19.0830   33.3200 C.3   223  ALA223      0.0319
     10  N         16.1100  -15.2130   35.0740 N.3   244  SER244     -0.1217
     11  CA        16.8270  -14.3950   34.0980 C.3   244  SER244      0.1889
     12  C         15.8130  -13.4810   33.4130 C.2   244  SER244      0.2288
     13  O         14.6030  -13.5690   33.6530 O.2   244  SER244     -0.2866
     14  CB        17.5680  -15.2640   33.0690 C.3   244  SER244      0.2089
     15  OG        16.6960  -15.7040   32.0340 O.3   244  SER244     -0.2183
     16  N         15.7310  -13.0690   29.8960 N.3   246  GLU246     -0.1245
     17  CA        15.9210  -13.2460   28.4570 C.3   246  GLU246      0.1567
     18  C         14.6000  -13.2880   27.6940 C.2   246  GLU246      0.2260
     19  O         14.4050  -12.5280   26.7400 O.2   246  GLU246     -0.2867
     20  CB        16.7320  -14.5130   28.1890 C.3   246  GLU246      0.0388
     21  CG        16.9710  -14.7850   26.7040 C.3   246  GLU246      0.1160
     22  CD        18.2450  -15.5650   26.4530 C.2   246  GLU246      0.3649
     23  OE1       18.4920  -15.9240   25.2820 O.co2 246  GLU246     -0.2457
     24  OE2       18.9960  -15.8210   27.4230 O.co2 246  GLU246     -0.2457
     25  N         17.8300  -17.4060   41.8110 N.3   268  ARG268     -0.1245
     26  CA        18.2160  -18.7880   41.5640 C.3   268  ARG268      0.1563
     27  C         18.3200  -19.4960   42.9060 C.2   268  ARG268      0.2260
     28  O         19.0730  -19.0610   43.7850 O.2   268  ARG268     -0.2867
     29  CB        19.5190  -18.8460   40.7690 C.3   268  ARG268      0.0307
     30  CG        19.3670  -18.0720   39.4710 C.3   268  ARG268      0.0489
     31  CD        20.4850  -18.2590   38.4800 C.3   268  ARG268      0.2205
     32  NE        20.2300  -17.4130   37.3270 N.pl3 268  ARG268     -0.0865
     33  CZ        21.0040  -17.3440   36.2550 C.cat 268  ARG268      0.5346
     34  NH1       22.0890  -18.1070   36.1720 N.pl3 268  ARG268      0.1354
     35  NH2       20.6910  -16.5020   35.2720 N.pl3 268  ARG268      0.1354
     36  N         21.1010   -8.5200   37.7030 N.3   282  MET282     -0.1245
     37  CA        21.6020   -8.7010   36.3490 C.3   282  MET282      0.1570
     38  C         21.2350   -7.5010   35.4970 C.2   282  MET282      0.2261
     39  O         20.1560   -6.9240   35.6460 O.2   282  MET282     -0.2867
     40  CB        20.9940   -9.9310   35.6500 C.3   282  MET282      0.0387
     41  CG        21.4320  -11.2850   36.1410 C.3   282  MET282      0.0595
     42  SD        20.7940  -12.5880   35.0450 S.3   282  MET282     -0.1393
     43  CE        19.4560  -11.7890   34.1960 C.3   282  MET282      0.0692
     44  N         20.4940   -7.4640   31.4860 N.3   284  GLU284     -0.1245
     45  CA        20.4330   -8.0590   30.1590 C.3   284  GLU284      0.1567
     46  C         20.1060   -6.9590   29.1590 C.2   284  GLU284      0.2260
     47  O         19.3050   -6.0670   29.4460 O.2   284  GLU284     -0.2867
     48  CB        19.4070   -9.2000   30.0760 C.3   284  GLU284      0.0388
     49  CG        19.8430  -10.4830   30.8220 C.3   284  GLU284      0.1160
     50  CD        19.1160  -11.7270   30.3240 C.2   284  GLU284      0.3649
     51  OE1       18.6890  -11.7500   29.1430 O.co2 284  GLU284     -0.2457
     52  OE2       18.9660  -12.6890   31.1090 O.co2 284  GLU284     -0.2457
     53  N         19.6410   -6.2420   24.7300 N.3   286  TYR286     -0.1241
     54  CA        19.4710   -6.8330   23.4070 C.3   286  TYR286      0.1605
     55  C         19.4550   -5.7360   22.3510 C.2   286  TYR286      0.2264
     56  O         18.7620   -4.7240   22.5040 O.2   286  TYR286     -0.2867
     57  CB        18.1940   -7.6830   23.3550 C.3   286  TYR286      0.0534
     58  CG        18.3330   -8.9180   24.2150 C.ar  286  TYR286     -0.0201
     59  CD1       18.0660   -8.8740   25.5880 C.ar  286  TYR286     -0.0009
     60  CD2       18.7830  -10.1140   23.6700 C.ar  286  TYR286     -0.0009
     61  CE1       18.2300   -9.9960   26.3880 C.ar  286  TYR286      0.0417
     62  CE2       18.9450  -11.2370   24.4530 C.ar  286  TYR286      0.0417
     63  CZ        18.6720  -11.1760   25.8070 C.ar  286  TYR286      0.1957
     64  OH        18.8390  -12.2940   26.5700 O.3   286  TYR286     -0.2866
     65  N         27.4530  -13.4550   29.7320 N.3   438  ASN438     -0.1240
     66  CA        26.9870  -14.4990   28.8270 C.3   438  ASN438      0.1653
     67  C         26.2490  -13.8180   27.6760 C.2   438  ASN438      0.2266
     68  O         25.4260  -12.9280   27.9140 O.2   438  ASN438     -0.2867
     69  CB        26.0800  -15.4830   29.5720 C.3   438  ASN438      0.1155
     70  CG        25.6920  -16.6790   28.7350 C.2   438  ASN438      0.2627
     71  OD1       26.4630  -17.1430   27.8970 O.2   438  ASN438     -0.2716
     72  ND2       24.4840  -17.1860   28.9580 N.am  438  ASN438     -0.0877
     73  N         24.9170  -14.1200   23.2250 N.3   440  TYR440     -0.1241
     74  CA        24.6050  -14.9150   22.0350 C.3   440  TYR440      0.1605
     75  C         24.4040  -14.0400   20.7980 C.2   440  TYR440      0.2264
     76  O         24.0410  -12.8560   20.8850 O.2   440  TYR440     -0.2867
     77  CB        23.3050  -15.7380   22.1810 C.3   440  TYR440      0.0534
     78  CG        23.1220  -16.5600   23.4470 C.ar  440  TYR440     -0.0201
     79  CD1       24.2020  -17.1290   24.1190 C.ar  440  TYR440     -0.0009
     80  CD2       21.8440  -16.7790   23.9560 C.ar  440  TYR440     -0.0009
     81  CE1       24.0080  -17.8770   25.2770 C.ar  440  TYR440      0.0417
     82  CE2       21.6410  -17.5230   25.0930 C.ar  440  TYR440      0.0417
     83  CZ        22.7240  -18.0730   25.7470 C.ar  440  TYR440      0.1957
     84  OH        22.5010  -18.8030   26.8800 O.3   440  TYR440     -0.2866
     85  N         21.5550  -14.2040   18.7610 N.3   442  GLU442     -0.1245
     86  CA        20.3120  -14.7630   19.2780 C.3   442  GLU442      0.1567
     87  C         19.6170  -15.6400   18.2460 C.2   442  GLU442      0.2260
     88  O         19.6130  -15.3360   17.0490 O.2   442  GLU442     -0.2867
     89  CB        19.3790  -13.6420   19.7290 C.3   442  GLU442      0.0388
     90  CG        19.9670  -12.7480   20.8350 C.3   442  GLU442      0.1160
     91  CD        20.3050  -13.5120   22.1230 C.2   442  GLU442      0.3649
     92  OE1       19.8180  -14.6470   22.3120 O.co2 442  GLU442     -0.2457
     93  OE2       21.0690  -12.9710   22.9480 O.co2 442  GLU442     -0.2457
     94  N         22.6230  -10.1800   22.1930 N.3   488  GLY488     -0.1210
     95  CA        22.2500   -9.8470   23.5490 C.3   488  GLY488      0.1956
     96  C         23.2880  -10.3760   24.5160 C.2   488  GLY488      0.2612
     97  O         24.0300  -11.3100   24.2070 O.2   488  GLY488     -0.2717
     98  N         23.3380   -9.7530   25.6960 N.am  489  PHE489     -0.1962
     99  CA        24.2710  -10.1710   26.7340 C.3   489  PHE489      0.1771
    100  C         23.6110  -10.0470   28.0960 C.2   489  PHE489      0.2620
    101  O         22.6480   -9.2970   28.2800 O.2   489  PHE489     -0.2715
    102  CB        25.5800   -9.3520   26.7130 C.3   489  PHE489      0.0574
    103  CG        25.4040   -7.8730   27.0320 C.ar  489  PHE489     -0.0200
    104  CD1       25.4190   -7.4180   28.3510 C.ar  489  PHE489     -0.0042
    105  CD2       25.2530   -6.9440   26.0160 C.ar  489  PHE489     -0.0042
    106  CE1       25.2750   -6.0730   28.6450 C.ar  489  PHE489     -0.0003
    107  CE2       25.1030   -5.5830   26.2990 C.ar  489  PHE489     -0.0003
    108  CZ        25.1190   -5.1480   27.6090 C.ar  489  PHE489     -0.0000
    109  N         24.1510  -10.7940   29.0460 N.am  490  GLY490     -0.1954
    110  CA        23.7890  -10.6350   30.4450 C.3   490  GLY490      0.1869
    111  C         25.0390  -10.5270   31.2870 C.2   490  GLY490      0.2309
    112  O         26.0210  -11.2240   31.0500 O.2   490  GLY490     -0.2863
@<TRIPOS>BOND
     1    88    87    2
     2    87    86    1
     3    85    86    1
     4    86    89    1
     5    89    90    1
     6    75    76    2
     7    75    74    1
     8    90    91    1
     9    74    77    1
    10    74    73    1
    11    91    92   ar
    12    91    93   ar
    13    77    78    1
    14    94    95    1
    15    55    56    2
    16    55    54    1
    17    57    54    1
    18    57    58    1
    19    54    53    1
    20    78    80   ar
    21    78    79   ar
    22    95    96    1
    23    60    58   ar
    24    60    62   ar
    25    80    82   ar
    26    79    81   ar
    27    97    96    2
    28    58    59   ar
    29    62    63   ar
    30    96    98   am
    31    82    83   ar
    32    81    83   ar
    33    23    22   ar
    34    59    61   ar
    35    98    99    1
    36    83    84    1
    37    63    61   ar
    38    63    64    1
    39   105   107   ar
    40   105   103   ar
    41   107   108   ar
    42    22    21    1
    43    22    24   ar
    44    21    20    1
    45   102    99    1
    46   102   103    1
    47    99   100    1
    48    19    18    2
    49   103   104   ar
    50   108   106   ar
    51    67    68    2
    52    67    66    1
    53    18    17    1
    54    71    70    2
    55   100   101    2
    56   100   109   am
    57    20    17    1
    58   104   106   ar
    59    17    16    1
    60    70    72   am
    61    70    69    1
    62    66    69    1
    63    66    65    1
    64   109   110    1
    65    51    50   ar
    66    46    47    2
    67    46    45    1
    68     2     1    1
    69     2     3    1
    70    48    45    1
    71    48    49    1
    72    45    44    1
    73    50    49    1
    74    50    52   ar
    75   110   111    1
    76     4     3    2
    77     3     5   am
    78   112   111    2
    79     5     6    1
    80    15    14    1
    81     6     7    1
    82     6     9    1
    83     8     7    2
    84    14    11    1
    85    12    13    2
    86    12    11    1
    87    11    10    1
    88    43    42    1
    89    42    41    1
    90    35    33    1
    91    38    39    2
    92    38    37    1
    93    40    41    1
    94    40    37    1
    95    34    33    1
    96    33    32    2
    97    37    36    1
    98    32    31    1
    99    31    30    1
   100    30    29    1
   101    29    26    1
   102    26    25    1
   103    26    27    1
   104    27    28    2
