@<TRIPOS>MOLECULE
tmp/6nseB01.pdb
 132 127 0 0 0
SMALL
GASTEIGER

@<TRIPOS>ATOM
      1  N          7.9940    9.1920   62.9230 N.3   118  CYS118     -0.1235
      2  CA         7.2620   10.2190   63.6640 C.3   118  CYS118      0.1677
      3  C          7.5600   11.6300   63.1650 C.2   118  CYS118      0.2270
      4  O          8.7000   12.0980   63.2380 O.2   118  CYS118     -0.2867
      5  CB         7.5870   10.1390   65.1650 C.3   118  CYS118      0.0956
      6  SG         6.4300   11.0910   66.1800 S.3   118  CYS118     -0.0801
      7  N         -4.2680    0.2850   70.2720 N.3   181  GLN181     -0.1245
      8  CA        -4.3660    1.6320   70.8490 C.3   181  GLN181      0.1566
      9  C         -5.2930    1.5220   72.0630 C.2   181  GLN181      0.2260
     10  O         -6.1090    0.6060   72.1390 O.2   181  GLN181     -0.2867
     11  CB        -4.9440    2.6450   69.8460 C.3   181  GLN181      0.0367
     12  CG        -3.9350    3.2160   68.8400 C.3   181  GLN181      0.0905
     13  CD        -4.5740    4.1360   67.7960 C.2   181  GLN181      0.2608
     14  OE1       -5.5540    4.8380   68.0700 O.2   181  GLN181     -0.2717
     15  NE2       -4.0110    4.1330   66.5960 N.am  181  GLN181     -0.0878
     16  N        -10.0310    2.7770   70.5020 N.3   184  ARG184     -0.1245
     17  CA       -10.2760    2.3020   69.1350 C.3   184  ARG184      0.1563
     18  C        -11.7750    2.0610   68.9960 C.2   184  ARG184      0.2260
     19  O        -12.4720    1.8910   69.9930 O.2   184  ARG184     -0.2867
     20  CB        -9.5780    0.9600   68.8930 C.3   184  ARG184      0.0307
     21  CG        -8.0850    0.9390   69.1240 C.3   184  ARG184      0.0489
     22  CD        -7.3320    0.9430   67.8290 C.3   184  ARG184      0.2205
     23  NE        -7.5810    2.1610   67.0750 N.pl3 184  ARG184     -0.0865
     24  CZ        -7.4250    2.2720   65.7590 C.cat 184  ARG184      0.5346
     25  NH1       -7.0320    1.2230   65.0420 N.pl3 184  ARG184      0.1354
     26  NH2       -7.6770    3.4320   65.1590 N.pl3 184  ARG184      0.1354
     27  N        -12.1490    9.9280   68.4570 N.3   265  TYR265     -0.1241
     28  CA       -11.5470   10.1620   69.7670 C.3   265  TYR265      0.1605
     29  C        -10.4040   11.1740   69.7040 C.2   265  TYR265      0.2264
     30  O         -9.7800   11.3620   68.6590 O.2   265  TYR265     -0.2867
     31  CB       -11.0850    8.8490   70.4110 C.3   265  TYR265      0.0534
     32  CG       -10.2410    7.9630   69.5270 C.ar  265  TYR265     -0.0201
     33  CD1      -10.8310    7.0150   68.6940 C.ar  265  TYR265     -0.0009
     34  CD2       -8.8530    8.0510   69.5460 C.ar  265  TYR265     -0.0009
     35  CE1      -10.0560    6.1750   67.9040 C.ar  265  TYR265      0.0417
     36  CE2       -8.0700    7.2170   68.7600 C.ar  265  TYR265      0.0417
     37  CZ        -8.6810    6.2820   67.9420 C.ar  265  TYR265      0.1957
     38  OH        -7.9160    5.4540   67.1570 O.3   265  TYR265     -0.2866
     39  N         -4.6140    9.6690   70.7460 N.3   268  PRO268     -0.2116
     40  CA        -3.9410    8.6360   69.9530 C.3   268  PRO268      0.1372
     41  C         -2.8630    7.9650   70.7990 C.2   268  PRO268      0.2244
     42  O         -1.7250    8.4390   70.8650 O.2   268  PRO268     -0.2868
     43  CB        -3.3190    9.4480   68.8240 C.3   268  PRO268      0.0268
     44  CG        -2.9280   10.7020   69.5070 C.3   268  PRO268      0.0207
     45  CD        -4.1440   11.0100   70.3580 C.3   268  PRO268      0.0892
     46  N         -0.8150    4.6090   71.1140 N.3   270  VAL270     -0.1245
     47  CA        -0.3570    3.3440   70.5530 C.3   270  VAL270      0.1561
     48  C          0.1010    2.4370   71.6960 C.2   270  VAL270      0.2260
     49  O          1.0200    2.7780   72.4480 O.2   270  VAL270     -0.2867
     50  CB         0.7940    3.5950   69.5530 C.3   270  VAL270      0.0252
     51  CG1        1.2660    2.2980   68.9340 C.3   270  VAL270      0.0019
     52  CG2        0.3400    4.5710   68.4860 C.3   270  VAL270      0.0019
     53  N          2.0680    4.8720   74.5910 N.3   287  PHE287     -0.1241
     54  CA         2.4920    6.2680   74.4940 C.3   287  PHE287      0.1605
     55  C          1.4920    7.0500   73.6700 C.2   287  PHE287      0.2264
     56  O          0.8020    6.4860   72.8180 O.2   287  PHE287     -0.2867
     57  CB         3.8850    6.3810   73.8760 C.3   287  PHE287      0.0534
     58  CG         4.0000    5.7740   72.5000 C.ar  287  PHE287     -0.0203
     59  CD1        3.6070    6.4860   71.3720 C.ar  287  PHE287     -0.0042
     60  CD2        4.5170    4.4960   72.3330 C.ar  287  PHE287     -0.0042
     61  CE1        3.7310    5.9300   70.1000 C.ar  287  PHE287     -0.0003
     62  CE2        4.6440    3.9310   71.0670 C.ar  287  PHE287     -0.0003
     63  CZ         4.2520    4.6470   69.9500 C.ar  287  PHE287     -0.0000
     64  N          0.3740   11.3680   72.2140 N.3   289  GLY289     -0.1210
     65  CA         0.6730   12.7730   72.0640 C.3   289  GLY289      0.1956
     66  C         -0.6220   13.3430   71.5680 C.2   289  GLY289      0.2612
     67  O         -1.6350   13.2910   72.2640 O.2   289  GLY289     -0.2717
     68  N         -0.6110   13.8460   70.3430 N.am  290  TRP290     -0.1962
     69  CA        -1.8310   14.3880   69.7520 C.3   290  TRP290      0.1771
     70  C         -1.8820   14.0930   68.2690 C.2   290  TRP290      0.2619
     71  O         -0.8710   13.7650   67.6560 O.2   290  TRP290     -0.2715
     72  CB        -2.0290   15.8860   70.0610 C.3   290  TRP290      0.0590
     73  CG        -0.8910   16.7990   69.7130 C.ar  290  TRP290      0.0006
     74  CD1       -0.6220   17.3420   68.4910 C.ar  290  TRP290      0.0946
     75  CD2        0.0970   17.3260   70.6090 C.ar  290  TRP290      0.0152
     76  NE1        0.4690   18.1770   68.5680 N.ar  290  TRP290     -0.2442
     77  CE2        0.9340   18.1850   69.8590 C.ar  290  TRP290      0.0810
     78  CE3        0.3540   17.1580   71.9800 C.ar  290  TRP290      0.0012
     79  CZ2        2.0140   18.8780   70.4280 C.ar  290  TRP290      0.0191
     80  CZ3        1.4240   17.8450   72.5460 C.ar  290  TRP290      0.0001
     81  CH2        2.2420   18.6940   71.7700 C.ar  290  TRP290      0.0015
     82  N         -3.0790   14.1530   67.7130 N.am  291  TYR291     -0.1974
     83  CA        -3.2910   13.8760   66.3080 C.3   291  TYR291      0.1639
     84  C         -2.8690   14.9680   65.3540 C.2   291  TYR291      0.2290
     85  O         -2.8620   16.1590   65.6860 O.2   291  TYR291     -0.2864
     86  CB        -4.7730   13.6320   66.0460 C.3   291  TYR291      0.0560
     87  CG        -5.2280   12.2060   66.1670 C.ar  291  TYR291     -0.0198
     88  CD1       -4.5980   11.1930   65.4490 C.ar  291  TYR291     -0.0009
     89  CD2       -6.3310   11.8740   66.9530 C.ar  291  TYR291     -0.0009
     90  CE1       -5.0580    9.8830   65.5060 C.ar  291  TYR291      0.0417
     91  CE2       -6.8010   10.5670   67.0180 C.ar  291  TYR291      0.0417
     92  CZ        -6.1570    9.5770   66.2880 C.ar  291  TYR291      0.1957
     93  OH        -6.6190    8.2840   66.3270 O.3   291  TYR291     -0.2866
     94  N         -4.1710   12.0330   59.8170 N.3   295  GLU295     -0.1245
     95  CA        -4.3560   10.6880   60.3520 C.3   295  GLU295      0.1567
     96  C         -5.8330   10.3410   60.4420 C.2   295  GLU295      0.2260
     97  O         -6.2170    9.2150   60.1680 O.2   295  GLU295     -0.2867
     98  CB        -3.7190   10.5550   61.7380 C.3   295  GLU295      0.0388
     99  CG        -2.2130   10.8180   61.7830 C.3   295  GLU295      0.1160
    100  CD        -1.6330   10.6970   63.1970 C.2   295  GLU295      0.3649
    101  OE1       -1.6040    9.5630   63.7290 O.co2 295  GLU295     -0.2457
    102  OE2       -1.2040   11.7290   63.7690 O.co2 295  GLU295     -0.2457
    103  N         -6.4520    9.1860   56.2360 N.3   299  ARG299     -0.1231
    104  CA        -6.3060    7.7670   56.5310 C.3   299  ARG299      0.1694
    105  C         -7.4850    7.0570   57.2020 C.2   299  ARG299      0.2592
    106  O         -8.1480    6.2510   56.5680 O.2   299  ARG299     -0.2718
    107  CB        -5.0360    7.5470   57.3310 C.3   299  ARG299      0.0321
    108  CG        -3.8000    8.1060   56.6310 C.3   299  ARG299      0.0489
    109  CD        -3.6420    7.5230   55.2250 C.3   299  ARG299      0.2205
    110  NE        -3.5310    6.0610   55.2270 N.pl3 299  ARG299     -0.0865
    111  CZ        -2.4220    5.3840   55.5250 C.cat 299  ARG299      0.5346
    112  NH1       -1.3110    6.0310   55.8430 N.pl3 299  ARG299      0.1354
    113  NH2       -2.4280    4.0550   55.5220 N.pl3 299  ARG299      0.1354
    114  N         -7.7880    7.3850   58.4510 N.am  300  ASN300     -0.1974
    115  CA        -8.8740    6.7110   59.1640 C.3   300  ASN300      0.1688
    116  C        -10.2390    6.7590   58.5170 C.2   300  ASN300      0.2292
    117  O        -10.9470    5.7570   58.4830 O.2   300  ASN300     -0.2864
    118  CB        -8.9960    7.2360   60.5930 C.3   300  ASN300      0.1181
    119  CG        -7.7310    7.0510   61.3850 C.2   300  ASN300      0.2629
    120  OD1       -6.7970    6.3780   60.9310 O.2   300  ASN300     -0.2716
    121  ND2       -7.6680    7.6750   62.5560 N.am  300  ASN300     -0.0877
    122  N        -10.8170    1.2060   55.4900 N.3   306  ARG306     -0.1245
    123  CA       -11.1780    1.8240   56.7570 C.3   306  ARG306      0.1563
    124  C        -12.6290    2.2850   56.6420 C.2   306  ARG306      0.2260
    125  O        -13.4340    1.6160   55.9950 O.2   306  ARG306     -0.2867
    126  CB       -10.2280    2.9890   57.0740 C.3   306  ARG306      0.0307
    127  CG        -8.7560    2.5670   57.2070 C.3   306  ARG306      0.0489
    128  CD        -8.5050    1.6300   58.3940 C.3   306  ARG306      0.2205
    129  NE        -8.9570    2.2010   59.6650 N.pl3 306  ARG306     -0.0865
    130  CZ        -8.2360    3.0300   60.4170 C.cat 306  ARG306      0.5346
    131  NH1       -7.0160    3.3830   60.0420 N.pl3 306  ARG306      0.1354
    132  NH2       -8.7580    3.5660   61.5120 N.pl3 306  ARG306      0.1354
@<TRIPOS>BOND
     1   109   110    1
     2   109   108    1
     3   110   111    2
     4   122   123    1
     5   113   111    1
     6   111   112    1
     7   125   124    2
     8   103   104    1
     9   104   105    1
    10   104   107    1
    11   106   105    2
    12   108   107    1
    13   124   123    1
    14   123   126    1
    15   126   127    1
    16   105   114   am
    17   127   128    1
    18   128   129    1
    19   114   115    1
    20   117   116    2
    21   116   115    1
    22   115   118    1
    23   129   130    2
    24    94    95    1
    25   131   130    1
    26    97    96    2
    27    95    96    1
    28    95    98    1
    29   130   132    1
    30   118   119    1
    31   120   119    2
    32   119   121   am
    33    98    99    1
    34    99   100    1
    35     1     2    1
    36     3     4    2
    37     3     2    1
    38   100   101   ar
    39   100   102   ar
    40     2     5    1
    41    25    24    1
    42    26    24    1
    43     5     6    1
    44    84    85    2
    45    84    83    1
    46    88    90   ar
    47    88    87   ar
    48    90    92   ar
    49    24    23    2
    50    86    87    1
    51    86    83    1
    52    87    89   ar
    53    92    93    1
    54    92    91   ar
    55    83    82    1
    56    15    13   am
    57    89    91   ar
    58    23    22    1
    59    38    37    1
    60    71    70    2
    61    82    70   am
    62    13    14    2
    63    13    12    1
    64    22    21    1
    65    35    37   ar
    66    35    33   ar
    67    37    36   ar
    68    70    69    1
    69    27    28    1
    70    52    50    1
    71    74    76   ar
    72    74    73   ar
    73    76    77   ar
    74    30    29    2
    75    33    32   ar
    76    36    34   ar
    77    43    44    1
    78    43    40    1
    79    12    11    1
    80    20    21    1
    81    20    17    1
    82    51    50    1
    83    18    17    1
    84    18    19    2
    85    17    16    1
    86    44    45    1
    87    32    34   ar
    88    32    31    1
    89    50    47    1
    90    29    28    1
    91    73    72    1
    92    73    75   ar
    93    69    72    1
    94    69    68    1
    95    28    31    1
    96    11     8    1
    97    77    79   ar
    98    77    75   ar
    99    63    61   ar
   100    63    62   ar
   101    40    39    1
   102    40    41    1
   103    61    59   ar
   104     7     8    1
   105    68    66   am
   106    45    39    1
   107    79    81   ar
   108    47    46    1
   109    47    48    1
   110    75    78   ar
   111    41    42    2
   112     8     9    1
   113    62    60   ar
   114    59    58   ar
   115    66    65    1
   116    66    67    2
   117    48    49    2
   118    81    80   ar
   119    78    80   ar
   120     9    10    2
   121    65    64    1
   122    60    58   ar
   123    58    57    1
   124    56    55    2
   125    55    54    1
   126    57    54    1
   127    54    53    1
