@<TRIPOS>MOLECULE
tmp/6nt8C00.pdb
 132 129 0 0 0
SMALL
GASTEIGER

@<TRIPOS>ATOM
      1  N        113.7930   80.6600   70.3480 N.3   134  SER134     -0.1202
      2  CA       113.1990   80.2030   69.0990 C.3   134  SER134      0.2020
      3  C        113.5280   81.1520   67.9590 C.2   134  SER134      0.2618
      4  O        113.9260   80.7210   66.8730 O.2   134  SER134     -0.2717
      5  CB       111.6920   80.0690   69.2530 C.3   134  SER134      0.2103
      6  OG       111.0760   80.0010   67.9830 O.3   134  SER134     -0.2182
      7  N        113.3990   82.4520   68.2040 N.am  135  TYR135     -0.1975
      8  CA       113.7020   83.4230   67.1600 C.3   135  TYR135      0.1639
      9  C        115.1890   83.4800   66.8530 C.2   135  TYR135      0.2290
     10  O        115.5720   83.8430   65.7380 O.2   135  TYR135     -0.2864
     11  CB       113.2070   84.8000   67.5650 C.3   135  TYR135      0.0560
     12  CG       113.2070   85.8060   66.4490 C.ar  135  TYR135     -0.0198
     13  CD1      112.1710   85.8510   65.5400 C.ar  135  TYR135     -0.0009
     14  CD2      114.2350   86.7180   66.3140 C.ar  135  TYR135     -0.0009
     15  CE1      112.1600   86.7700   64.5280 C.ar  135  TYR135      0.0417
     16  CE2      114.2340   87.6380   65.3060 C.ar  135  TYR135      0.0417
     17  CZ       113.1930   87.6580   64.4170 C.ar  135  TYR135      0.1957
     18  OH       113.1830   88.5750   63.4030 O.3   135  TYR135     -0.2866
     19  N        115.8870   79.5430   65.0680 N.3   138  GLY138     -0.1210
     20  CA       115.1730   79.2110   63.8510 C.3   138  GLY138      0.1956
     21  C        115.4660   80.1550   62.7040 C.2   138  GLY138      0.2611
     22  O        115.5470   79.7330   61.5510 O.2   138  GLY138     -0.2717
     23  N        115.6400   81.4390   62.9970 N.am  139  TYR139     -0.1976
     24  CA       115.7750   82.4310   61.9400 C.3   139  TYR139      0.1639
     25  C        117.1450   83.0860   61.9180 C.2   139  TYR139      0.2290
     26  O        117.8200   83.0490   60.8870 O.2   139  TYR139     -0.2864
     27  CB       114.6980   83.4970   62.1010 C.3   139  TYR139      0.0560
     28  CG       114.4990   84.3520   60.8890 C.ar  139  TYR139     -0.0198
     29  CD1      113.6700   83.9410   59.8740 C.ar  139  TYR139     -0.0009
     30  CD2      115.1300   85.5720   60.7670 C.ar  139  TYR139     -0.0009
     31  CE1      113.4650   84.7160   58.7720 C.ar  139  TYR139      0.0417
     32  CE2      114.9400   86.3530   59.6630 C.ar  139  TYR139      0.0417
     33  CZ       114.1070   85.9160   58.6710 C.ar  139  TYR139      0.1957
     34  OH       113.9080   86.6880   57.5600 O.3   139  TYR139     -0.2866
     35  N        114.1960   71.9510   55.9630 N.3   198  ARG198     -0.1245
     36  CA       114.1860   72.0960   57.4090 C.3   198  ARG198      0.1563
     37  C        112.9630   71.4020   57.9760 C.2   198  ARG198      0.2260
     38  O        111.8360   71.7160   57.5800 O.2   198  ARG198     -0.2867
     39  CB       114.1880   73.5690   57.7970 C.3   198  ARG198      0.0307
     40  CG       115.5060   74.2550   57.5650 C.3   198  ARG198      0.0489
     41  CD       116.2620   74.3500   58.8600 C.3   198  ARG198      0.2205
     42  NE       115.4440   74.9960   59.8750 N.pl3 198  ARG198     -0.0865
     43  CZ       115.6960   74.9430   61.1750 C.cat 198  ARG198      0.5346
     44  NH1      116.7470   74.2730   61.6190 N.pl3 198  ARG198      0.1354
     45  NH2      114.8940   75.5570   62.0300 N.pl3 198  ARG198      0.1354
     46  N        110.0090   69.6030   55.9320 N.3   201  ILE201     -0.1245
     47  CA       109.5990   70.3950   54.7820 C.3   201  ILE201      0.1561
     48  C        110.7750   70.5010   53.8270 C.2   201  ILE201      0.2260
     49  O        111.8580   70.9670   54.1970 O.2   201  ILE201     -0.2867
     50  CB       109.1090   71.7790   55.2130 C.3   201  ILE201      0.0252
     51  CG1      107.7230   71.6730   55.8250 C.3   201  ILE201      0.0019
     52  CG2      109.0720   72.7290   54.0360 C.3   201  ILE201      0.0019
     53  CD1      106.6860   71.1920   54.8610 C.3   201  ILE201      0.0001
     54  N        112.1120   74.8050   52.1360 N.3   204  ARG204     -0.1231
     55  CA       111.5630   75.9380   52.8560 C.3   204  ARG204      0.1694
     56  C        112.2830   77.1980   52.4120 C.2   204  ARG204      0.2592
     57  O        113.5020   77.1940   52.2210 O.2   204  ARG204     -0.2718
     58  CB       111.7230   75.7370   54.3550 C.3   204  ARG204      0.0321
     59  CG       110.9200   76.6780   55.1980 C.3   204  ARG204      0.0489
     60  CD       111.2790   76.4810   56.6480 C.3   204  ARG204      0.2205
     61  NE       110.5560   77.3890   57.5240 N.pl3 204  ARG204     -0.0865
     62  CZ       110.8700   77.5960   58.7950 C.cat 204  ARG204      0.5346
     63  NH1      111.9020   76.9650   59.3300 N.pl3 204  ARG204      0.1354
     64  NH2      110.1610   78.4370   59.5290 N.pl3 204  ARG204      0.1354
     65  N        111.5260   78.2770   52.2370 N.am  205  VAL205     -0.1966
     66  CA       112.0100   79.4900   51.5910 C.3   205  VAL205      0.1727
     67  C        112.0140   80.6280   52.5960 C.2   205  VAL205      0.2616
     68  O        110.9830   80.9270   53.2070 O.2   205  VAL205     -0.2715
     69  CB       111.1460   79.8510   50.3730 C.3   205  VAL205      0.0290
     70  CG1      111.5590   81.1860   49.8080 C.3   205  VAL205      0.0023
     71  CG2      111.2670   78.7810   49.3240 C.3   205  VAL205      0.0023
     72  N        113.1660   81.2690   52.7540 N.am  206  TYR206     -0.1960
     73  CA       113.2970   82.4850   53.5430 C.3   206  TYR206      0.1771
     74  C        113.5450   83.6470   52.5970 C.2   206  TYR206      0.2619
     75  O        114.3830   83.5450   51.6950 O.2   206  TYR206     -0.2715
     76  CB       114.4430   82.3750   54.5380 C.3   206  TYR206      0.0574
     77  CG       114.3040   81.2450   55.5130 C.ar  206  TYR206     -0.0198
     78  CD1      113.0670   80.8580   55.9780 C.ar  206  TYR206     -0.0009
     79  CD2      115.4150   80.5690   55.9720 C.ar  206  TYR206     -0.0009
     80  CE1      112.9390   79.8240   56.8720 C.ar  206  TYR206      0.0417
     81  CE2      115.2980   79.5380   56.8650 C.ar  206  TYR206      0.0417
     82  CZ       114.0600   79.1700   57.3110 C.ar  206  TYR206      0.1957
     83  OH       113.9350   78.1380   58.2030 O.3   206  TYR206     -0.2866
     84  N        112.8310   84.7480   52.8030 N.am  207  LYS207     -0.1977
     85  CA       112.9440   85.9170   51.9470 C.3   207  LYS207      0.1596
     86  C        113.2930   87.1310   52.7860 C.2   207  LYS207      0.2287
     87  O        113.4630   87.0440   54.0030 O.2   207  LYS207     -0.2864
     88  CB       111.6500   86.1810   51.1780 C.3   207  LYS207      0.0298
     89  CG       111.5180   85.4060   49.9000 C.3   207  LYS207      0.0038
     90  CD       110.3400   85.9180   49.0990 C.3   207  LYS207      0.0206
     91  CE       110.2340   85.2140   47.7610 C.3   207  LYS207      0.1093
     92  NZ       109.0740   85.7110   46.9750 N.3   207  LYS207     -0.1314
     93  N        112.9300   94.6910   59.0130 N.3   222  GLU222     -0.1231
     94  CA       111.7690   93.8440   59.2430 C.3   222  GLU222      0.1699
     95  C        111.3840   93.9300   60.7070 C.2   222  GLU222      0.2592
     96  O        112.1440   94.4160   61.5430 O.2   222  GLU222     -0.2718
     97  CB       112.0360   92.3960   58.8590 C.3   222  GLU222      0.0402
     98  CG       112.9590   91.6980   59.7950 C.3   222  GLU222      0.1161
     99  CD       113.2180   90.2780   59.3770 C.2   222  GLU222      0.3649
    100  OE1      112.7130   89.8740   58.3150 O.co2 222  GLU222     -0.2457
    101  OE2      113.9200   89.5590   60.1120 O.co2 222  GLU222     -0.2457
    102  N        110.1830   93.4580   61.0080 N.am  223  PHE223     -0.1976
    103  CA       109.7020   93.4000   62.3780 C.3   223  PHE223      0.1639
    104  C        110.1270   92.1170   63.0620 C.2   223  PHE223      0.2290
    105  O        110.2660   91.0680   62.4320 O.2   223  PHE223     -0.2864
    106  CB       108.1810   93.5040   62.4370 C.3   223  PHE223      0.0560
    107  CG       107.6690   94.8950   62.3610 C.ar  223  PHE223     -0.0200
    108  CD1      107.5800   95.6660   63.5010 C.ar  223  PHE223     -0.0042
    109  CD2      107.2750   95.4340   61.1610 C.ar  223  PHE223     -0.0042
    110  CE1      107.0930   96.9460   63.4430 C.ar  223  PHE223     -0.0003
    111  CE2      106.8060   96.7140   61.0990 C.ar  223  PHE223     -0.0003
    112  CZ       106.7140   97.4760   62.2370 C.ar  223  PHE223     -0.0000
    113  N        108.9670   89.2650   64.4990 N.3   225  SER225     -0.1203
    114  CA       107.6640   88.6330   64.3110 C.3   225  SER225      0.2005
    115  C        106.9400   88.1380   65.5670 C.2   225  SER225      0.2460
    116  O        105.7400   88.4410   65.6830 O.2   225  SER225     -0.2732
    117  CB       107.8080   87.4830   63.3130 C.3   225  SER225      0.2103
    118  OG       108.7970   86.5790   63.7450 O.3   225  SER225     -0.2182
    119  N        107.5420   87.3990   66.5170 N.am  226  PRO226     -0.2728
    120  CA       106.7010   86.6730   67.4790 C.3   226  PRO226      0.1401
    121  C        106.0650   87.5480   68.5360 C.2   226  PRO226      0.2269
    122  O        105.2480   87.0370   69.3120 O.2   226  PRO226     -0.2865
    123  CB       107.6710   85.6780   68.1170 C.3   226  PRO226      0.0296
    124  CG       109.0020   86.2840   68.0160 C.3   226  PRO226      0.0237
    125  CD       109.0140   87.0260   66.7520 C.3   226  PRO226      0.0939
    126  N        102.5940   87.2330   68.1050 N.3   229  THR229     -0.1218
    127  CA       102.0350   86.1310   68.8780 C.3   229  THR229      0.1862
    128  C        101.5480   86.6000   70.2390 C.2   229  THR229      0.2287
    129  O        100.4190   86.2900   70.6420 O.2   229  THR229     -0.2866
    130  CB       103.0840   85.0390   69.0390 C.3   229  THR229      0.1770
    131  OG1      103.3400   84.4460   67.7640 O.3   229  THR229     -0.2211
    132  CG2      102.6180   83.9680   70.0020 C.3   229  THR229      0.0375
@<TRIPOS>BOND
     1    92    91    1
     2    91    90    1
     3    90    89    1
     4    71    69    1
     5    70    69    1
     6    89    88    1
     7    69    66    1
     8    88    85    1
     9    66    65    1
    10    66    67    1
    11    75    74    2
    12    85    86    1
    13    85    84    1
    14    54    55    1
    15    57    56    2
    16    65    56   am
    17    56    55    1
    18    67    72   am
    19    67    68    2
    20    74    84   am
    21    74    73    1
    22    72    73    1
    23    86    87    2
    24    55    58    1
    25    73    76    1
    26    48    49    2
    27    48    47    1
    28    52    50    1
    29    58    59    1
    30    76    77    1
    31    47    50    1
    32    47    46    1
    33    53    51    1
    34    59    60    1
    35    50    51    1
    36    77    79   ar
    37    77    78   ar
    38    35    36    1
    39    79    81   ar
    40    78    80   ar
    41    60    61    1
    42    81    82   ar
    43    80    82   ar
    44    82    83    1
    45    36    39    1
    46    36    37    1
    47    61    62    2
    48    34    33    1
    49    40    39    1
    50    40    41    1
    51    38    37    2
    52   100    99   ar
    53    33    31   ar
    54    33    32   ar
    55    31    29   ar
    56    62    63    1
    57    62    64    1
    58    97    94    1
    59    97    98    1
    60    41    42    1
    61    93    94    1
    62    94    95    1
    63    99    98    1
    64    99   101   ar
    65    32    30   ar
    66    29    28   ar
    67    42    43    2
    68    95   102   am
    69    95    96    2
    70    30    28   ar
    71    26    25    2
    72    28    27    1
    73   102   103    1
    74   111   109   ar
    75   111   112   ar
    76   109   107   ar
    77    43    44    1
    78    43    45    1
    79    22    21    2
    80    25    24    1
    81    24    27    1
    82    24    23    1
    83   112   110   ar
    84   107   106    1
    85   107   108   ar
    86   103   106    1
    87   103   104    1
    88   105   104    2
    89    21    23   am
    90    21    20    1
    91   117   118    1
    92   117   114    1
    93    18    17    1
    94   110   108   ar
    95    20    19    1
    96   114   113    1
    97   114   115    1
    98    17    15   ar
    99    17    16   ar
   100    15    13   ar
   101    16    14   ar
   102    13    12   ar
   103   115   116    2
   104   115   119   am
   105    10     9    2
   106    14    12   ar
   107    12    11    1
   108   119   125    1
   109   119   120    1
   110   125   124    1
   111     9     8    1
   112     4     3    2
   113     8    11    1
   114     8     7    1
   115   120   123    1
   116   120   121    1
   117   131   130    1
   118     3     7   am
   119     3     2    1
   120     6     5    1
   121   124   123    1
   122   126   127    1
   123   121   122    2
   124   127   130    1
   125   127   128    1
   126   130   132    1
   127     2     5    1
   128     2     1    1
   129   128   129    2
