@<TRIPOS>MOLECULE
tmp/6nudE00.pdb
 145 138 0 0 0
SMALL
GASTEIGER

@<TRIPOS>ATOM
      1  N        206.5240  206.4420  253.1940 N.3   231  ASP231     -0.1239
      2  CA       206.7370  206.2130  251.7620 C.3   231  ASP231      0.1674
      3  C        205.8220  205.0600  251.3430 C.2   231  ASP231      0.2266
      4  O        206.1920  203.8880  251.4460 O.2   231  ASP231     -0.2867
      5  CB       208.1970  205.9140  251.4560 C.3   231  ASP231      0.1410
      6  CG       208.4690  205.8040  249.9690 C.2   231  ASP231      0.3668
      7  OD1      208.4970  206.8510  249.2890 O.co2 231  ASP231     -0.2456
      8  OD2      208.6540  204.6700  249.4790 O.co2 231  ASP231     -0.2456
      9  N        202.2060  219.1340  252.5480 N.3   282  TYR282     -0.1241
     10  CA       202.1070  218.4690  251.2530 C.3   282  TYR282      0.1605
     11  C        201.7760  216.9900  251.4160 C.2   282  TYR282      0.2264
     12  O        202.6730  216.1410  251.4170 O.2   282  TYR282     -0.2867
     13  CB       203.4040  218.6440  250.4550 C.3   282  TYR282      0.0534
     14  CG       203.3430  218.0830  249.0520 C.ar  282  TYR282     -0.0201
     15  CD1      202.6130  218.7230  248.0590 C.ar  282  TYR282     -0.0009
     16  CD2      204.0210  216.9170  248.7180 C.ar  282  TYR282     -0.0009
     17  CE1      202.5550  218.2150  246.7740 C.ar  282  TYR282      0.0417
     18  CE2      203.9690  216.4020  247.4370 C.ar  282  TYR282      0.0417
     19  CZ       203.2350  217.0550  246.4690 C.ar  282  TYR282      0.1957
     20  OH       203.1810  216.5460  245.1920 O.3   282  TYR282     -0.2866
     21  N        203.7680  210.7120  249.7220 N.3   287  HIS287     -0.1241
     22  CA       204.9900  211.4640  250.0010 C.3   287  HIS287      0.1621
     23  C        204.6170  212.6800  250.8370 C.2   287  HIS287      0.2264
     24  O        204.0300  213.6350  250.3180 O.2   287  HIS287     -0.2867
     25  CB       205.6910  211.8830  248.7090 C.3   287  HIS287      0.0745
     26  CG       206.1560  210.7310  247.8730 C.ar  287  HIS287      0.0817
     27  ND1      207.2580  209.9710  248.1990 N.ar  287  HIS287     -0.2268
     28  CD2      205.6660  210.2090  246.7230 C.ar  287  HIS287      0.1154
     29  CE1      207.4280  209.0310  247.2860 C.ar  287  HIS287      0.1986
     30  NE2      206.4750  209.1530  246.3800 N.ar  287  HIS287     -0.2212
     31  N        205.8170  214.9000  254.7980 N.3   289  TYR289     -0.1241
     32  CA       206.7120  215.0680  255.9330 C.3   289  TYR289      0.1605
     33  C        205.9210  215.5540  257.1380 C.2   289  TYR289      0.2264
     34  O        204.9840  216.3470  257.0000 O.2   289  TYR289     -0.2867
     35  CB       207.8380  216.0570  255.6100 C.3   289  TYR289      0.0534
     36  CG       208.8120  215.5560  254.5670 C.ar  289  TYR289     -0.0201
     37  CD1      209.8340  214.6790  254.9080 C.ar  289  TYR289     -0.0009
     38  CD2      208.7110  215.9600  253.2430 C.ar  289  TYR289     -0.0009
     39  CE1      210.7270  214.2190  253.9590 C.ar  289  TYR289      0.0417
     40  CE2      209.5990  215.5050  252.2860 C.ar  289  TYR289      0.0417
     41  CZ       210.6050  214.6350  252.6500 C.ar  289  TYR289      0.1957
     42  OH       211.4920  214.1800  251.7020 O.3   289  TYR289     -0.2866
     43  N        205.5630  214.6970  233.8540 N.3   501  ASP501     -0.1225
     44  CA       206.3620  214.5790  235.0710 C.3   501  ASP501      0.1805
     45  C        207.3990  215.6930  235.0670 C.2   501  ASP501      0.2598
     46  O        208.3190  215.6830  234.2430 O.2   501  ASP501     -0.2718
     47  CB       207.0310  213.2080  235.1670 C.3   501  ASP501      0.1424
     48  CG       207.7520  213.0010  236.4840 C.2   501  ASP501      0.3668
     49  OD1      207.0710  212.7900  237.5100 O.co2 501  ASP501     -0.2456
     50  OD2      209.0000  213.0500  236.4940 O.co2 501  ASP501     -0.2456
     51  N        207.2530  216.6480  235.9860 N.am  502  VAL502     -0.1966
     52  CA       208.1840  217.7660  236.0600 C.3   502  VAL502      0.1727
     53  C        209.5140  217.2870  236.6290 C.2   502  VAL502      0.2616
     54  O        209.5620  216.4170  237.5110 O.2   502  VAL502     -0.2715
     55  CB       207.5830  218.9080  236.8990 C.3   502  VAL502      0.0290
     56  CG1      207.3520  218.4640  238.3390 C.3   502  VAL502      0.0023
     57  CG2      208.4700  220.1450  236.8460 C.3   502  VAL502      0.0023
     58  N        210.6070  217.8400  236.1100 N.am  503  ASP503     -0.1957
     59  CA       211.9460  217.4940  236.5530 C.3   503  ASP503      0.1840
     60  C        212.4910  218.5850  237.4720 C.2   503  ASP503      0.2622
     61  O        211.8110  219.5630  237.7920 O.2   503  ASP503     -0.2715
     62  CB       212.8660  217.2720  235.3500 C.3   503  ASP503      0.1450
     63  CG       212.5150  216.0200  234.5710 C.2   503  ASP503      0.3671
     64  OD1      211.9890  215.0660  235.1820 O.co2 503  ASP503     -0.2456
     65  OD2      212.7670  215.9890  233.3480 O.co2 503  ASP503     -0.2456
     66  N        213.7440  218.4050  237.8980 N.am  504  ASP504     -0.1957
     67  CA       214.4220  219.3400  238.7990 C.3   504  ASP504      0.1840
     68  C        213.6310  219.5390  240.0900 C.2   504  ASP504      0.2622
     69  O        213.5530  220.6450  240.6290 O.2   504  ASP504     -0.2715
     70  CB       214.6900  220.6810  238.1110 C.3   504  ASP504      0.1450
     71  CG       215.7500  220.5810  237.0320 C.2   504  ASP504      0.3671
     72  OD1      216.6420  219.7150  237.1520 O.co2 504  ASP504     -0.2456
     73  OD2      215.6920  221.3700  236.0650 O.co2 504  ASP504     -0.2456
     74  N        213.0400  218.4560  240.5900 N.am  505  LEU505     -0.1963
     75  CA       212.2450  218.4910  241.8110 C.3   505  LEU505      0.1728
     76  C        212.8400  217.6360  242.9170 C.2   505  LEU505      0.2617
     77  O        212.9100  218.0810  244.0690 O.2   505  LEU505     -0.2715
     78  CB       210.8050  218.0410  241.5130 C.3   505  LEU505      0.0311
     79  CG       209.8170  218.0930  242.6800 C.3   505  LEU505      0.0022
     80  CD1      209.6620  219.5170  243.1900 C.3   505  LEU505      0.0001
     81  CD2      208.4710  217.5200  242.2640 C.3   505  LEU505      0.0001
     82  N        213.2750  216.4150  242.6010 N.am  506  GLY506     -0.1940
     83  CA       213.8760  215.5680  243.6150 C.3   506  GLY506      0.2014
     84  C        215.2830  215.9870  243.9870 C.2   506  GLY506      0.2638
     85  O        215.7280  215.7470  245.1130 O.2   506  GLY506     -0.2714
     86  N        216.0000  216.6130  243.0590 N.am  507  ALA507     -0.1977
     87  CA       217.3550  217.0840  243.2890 C.3   507  ALA507      0.1597
     88  C        217.3750  218.6040  243.3890 C.2   507  ALA507      0.2287
     89  O        216.4960  219.2950  242.8650 O.2   507  ALA507     -0.2864
     90  CB       218.2970  216.6190  242.1720 C.3   507  ALA507      0.0319
     91  N        216.7770  220.4580  245.9180 N.3   509  PHE509     -0.1241
     92  CA       215.5960  220.9250  246.6330 C.3   509  PHE509      0.1605
     93  C        215.9190  221.5500  247.9810 C.2   509  PHE509      0.2264
     94  O        215.2290  222.4880  248.3960 O.2   509  PHE509     -0.2867
     95  CB       214.6110  219.7680  246.8390 C.3   509  PHE509      0.0534
     96  CG       213.3300  220.1740  247.5120 C.ar  509  PHE509     -0.0203
     97  CD1      212.3580  220.8740  246.8170 C.ar  509  PHE509     -0.0042
     98  CD2      213.0970  219.8520  248.8390 C.ar  509  PHE509     -0.0042
     99  CE1      211.1780  221.2470  247.4330 C.ar  509  PHE509     -0.0003
    100  CE2      211.9190  220.2230  249.4610 C.ar  509  PHE509     -0.0003
    101  CZ       210.9590  220.9210  248.7570 C.ar  509  PHE509     -0.0000
    102  N        207.2360  224.1970  247.7290 N.3   531  SER531     -0.1217
    103  CA       206.4960  223.0300  247.2650 C.3   531  SER531      0.1889
    104  C        204.9920  223.2610  247.2430 C.2   531  SER531      0.2288
    105  O        204.2790  222.5370  246.5390 O.2   531  SER531     -0.2866
    106  CB       206.8180  221.8200  248.1440 C.3   531  SER531      0.2089
    107  OG       206.3460  222.0100  249.4670 O.3   531  SER531     -0.2183
    108  N        203.9510  225.2800  243.7760 N.3   534  MET534     -0.1245
    109  CA       203.9140  224.4210  242.5980 C.3   534  MET534      0.1570
    110  C        202.8180  223.3680  242.6940 C.2   534  MET534      0.2261
    111  O        202.3360  222.8870  241.6620 O.2   534  MET534     -0.2867
    112  CB       205.2770  223.7540  242.3900 C.3   534  MET534      0.0387
    113  CG       205.7810  222.9510  243.5820 C.3   534  MET534      0.0595
    114  SD       205.2180  221.2370  243.5930 S.3   534  MET534     -0.1393
    115  CE       206.1540  220.5640  242.2220 C.3   534  MET534      0.0692
    116  N        201.4780  216.6160  242.4080 N.3   558  GLY558     -0.1210
    117  CA       202.5470  217.5320  242.0630 C.3   558  GLY558      0.1956
    118  C        203.8060  216.8320  241.5940 C.2   558  GLY558      0.2611
    119  O        204.9060  217.3820  241.7000 O.2   558  GLY558     -0.2717
    120  N        203.6550  215.6160  241.0720 N.am  559  ASP559     -0.1973
    121  CA       204.7950  214.8470  240.5880 C.3   559  ASP559      0.1709
    122  C        204.5230  214.2960  239.1940 C.2   559  ASP559      0.2293
    123  O        205.0330  214.8240  238.2000 O.2   559  ASP559     -0.2864
    124  CB       205.1250  213.7090  241.5560 C.3   559  ASP559      0.1436
    125  CG       206.3900  212.9670  241.1740 C.2   559  ASP559      0.3671
    126  OD1      207.4910  213.5220  241.3770 O.co2 559  ASP559     -0.2456
    127  OD2      206.2850  211.8280  240.6720 O.co2 559  ASP559     -0.2456
    128  N        216.2190  209.9190  228.6760 N.3   619  LYS619     -0.1245
    129  CA       217.2390  210.4110  229.5920 C.3   619  LYS619      0.1561
    130  C        218.6570  210.1770  229.0850 C.2   619  LYS619      0.2260
    131  O        219.6130  210.4430  229.8220 O.2   619  LYS619     -0.2867
    132  CB       217.0670  209.7590  230.9670 C.3   619  LYS619      0.0271
    133  CG       215.7410  210.0700  231.6420 C.3   619  LYS619      0.0035
    134  CD       215.6480  211.5380  232.0270 C.3   619  LYS619      0.0206
    135  CE       214.3570  211.8320  232.7730 C.3   619  LYS619      0.1093
    136  NZ       214.2330  213.2750  233.1200 N.3   619  LYS619     -0.1314
    137  N        218.4330  215.8800  230.5530 N.3   623  LYS623     -0.1245
    138  CA       217.2510  215.8710  231.4030 C.3   623  LYS623      0.1561
    139  C        216.0280  216.5020  230.7520 C.2   623  LYS623      0.2260
    140  O        214.9340  216.4010  231.3170 O.2   623  LYS623     -0.2867
    141  CB       217.5380  216.5890  232.7330 C.3   623  LYS623      0.0271
    142  CG       218.4240  215.8090  233.6920 C.3   623  LYS623      0.0035
    143  CD       218.7590  216.6290  234.9270 C.3   623  LYS623      0.0206
    144  CE       217.5410  216.8030  235.8190 C.3   623  LYS623      0.1093
    145  NZ       217.8770  217.5030  237.0890 N.3   623  LYS623     -0.1314
@<TRIPOS>BOND
     1   128   129    1
     2   130   129    1
     3   130   131    2
     4   129   132    1
     5   137   138    1
     6   139   140    2
     7   139   138    1
     8   132   133    1
     9   138   141    1
    10   133   134    1
    11   134   135    1
    12   141   142    1
    13   135   136    1
    14    65    63   ar
    15   142   143    1
    16    43    44    1
    17    46    45    2
    18    63    64   ar
    19    63    62    1
    20   143   144    1
    21    45    44    1
    22    45    51   am
    23    44    47    1
    24    47    48    1
    25    62    59    1
    26   144   145    1
    27    51    52    1
    28    52    53    1
    29    52    55    1
    30    73    71   ar
    31    58    59    1
    32    58    53   am
    33    48    50   ar
    34    48    49   ar
    35    59    60    1
    36    53    54    2
    37    57    55    1
    38    55    56    1
    39    71    72   ar
    40    71    70    1
    41    60    61    2
    42    60    66   am
    43    66    67    1
    44    70    67    1
    45   123   122    2
    46    67    68    1
    47   122   121    1
    48    68    74   am
    49    68    69    2
    50   121   120    1
    51   121   124    1
    52    74    75    1
    53   127   125   ar
    54   120   118   am
    55   125   126   ar
    56   125   124    1
    57    78    75    1
    58    78    79    1
    59   118   119    2
    60   118   117    1
    61   111   110    2
    62    75    76    1
    63   117   116    1
    64    90    87    1
    65   115   114    1
    66    81    79    1
    67   112   109    1
    68   112   113    1
    69   109   110    1
    70   109   108    1
    71    82    76   am
    72    82    83    1
    73    79    80    1
    74    89    88    2
    75    76    77    2
    76    86    87    1
    77    86    84   am
    78    87    88    1
    79   113   114    1
    80    83    84    1
    81    84    85    2
    82    20    19    1
    83    91    92    1
    84    30    28   ar
    85    30    29   ar
    86    19    17   ar
    87    19    18   ar
    88   105   104    2
    89    92    95    1
    90    92    93    1
    91    28    26   ar
    92    17    15   ar
    93    97    99   ar
    94    97    96   ar
    95    95    96    1
    96   104   103    1
    97   103   102    1
    98   103   106    1
    99    29    27   ar
   100    99   101   ar
   101    18    16   ar
   102    96    98   ar
   103    26    27   ar
   104    26    25    1
   105    93    94    2
   106    15    14   ar
   107   106   107    1
   108    25    22    1
   109    16    14   ar
   110   101   100   ar
   111    98   100   ar
   112    14    13    1
   113     7     6   ar
   114     8     6   ar
   115    21    22    1
   116     6     5    1
   117    22    23    1
   118    24    23    2
   119    13    10    1
   120    10    11    1
   121    10     9    1
   122     3     4    2
   123     3     2    1
   124    11    12    2
   125     5     2    1
   126    42    41    1
   127     2     1    1
   128    40    41   ar
   129    40    38   ar
   130    41    39   ar
   131    38    36   ar
   132    39    37   ar
   133    36    37   ar
   134    36    35    1
   135    31    32    1
   136    35    32    1
   137    32    33    1
   138    34    33    2
