@<TRIPOS>MOLECULE
tmp/6nzxA00.pdb
 206 206 0 0 0
SMALL
GASTEIGER

@<TRIPOS>ATOM
      1  N          3.1270  -27.0100    1.9540 N.3    22  VAL22      -0.1231
      2  CA         2.6060  -25.9090    2.7460 C.3    22  VAL22       0.1692
      3  C          1.0890  -26.0040    2.6940 C.2    22  VAL22       0.2592
      4  O          0.5610  -26.3290    1.6540 O.2    22  VAL22      -0.2718
      5  CB         3.0940  -24.5380    2.2360 C.3    22  VAL22       0.0266
      6  CG1        4.5860  -24.3750    2.4320 C.3    22  VAL22       0.0020
      7  CG2        2.7260  -24.3090    0.7710 C.3    22  VAL22       0.0020
      8  N          0.4140  -25.7040    3.8090 N.am   23  ALA23      -0.1966
      9  CA        -1.0490  -25.7110    3.8050 C.3    23  ALA23       0.1728
     10  C         -1.5560  -24.2660    3.7240 C.2    23  ALA23       0.2616
     11  O         -0.9050  -23.3150    4.1960 O.2    23  ALA23      -0.2715
     12  CB        -1.6000  -26.4580    4.9910 C.3    23  ALA23       0.0334
     13  N         -2.6860  -24.1070    3.0300 N.am   24  TYR24      -0.1974
     14  CA        -3.3540  -22.8240    2.9240 C.3    24  TYR24       0.1639
     15  C         -4.8580  -23.0660    2.8040 C.2    24  TYR24       0.2290
     16  O         -5.2830  -23.6940    1.8530 O.2    24  TYR24      -0.2864
     17  CB        -2.8440  -22.0030    1.7340 C.3    24  TYR24       0.0560
     18  CG        -3.5290  -20.6620    1.6360 C.ar   24  TYR24      -0.0198
     19  CD1       -4.4870  -20.4050    0.6710 C.ar   24  TYR24      -0.0009
     20  CD2       -3.2890  -19.6840    2.5850 C.ar   24  TYR24      -0.0009
     21  CE1       -5.1570  -19.1900    0.6250 C.ar   24  TYR24       0.0417
     22  CE2       -3.9590  -18.4720    2.5670 C.ar   24  TYR24       0.0417
     23  CZ        -4.8940  -18.2230    1.5810 C.ar   24  TYR24       0.1957
     24  OH        -5.5340  -17.0190    1.5470 O.3    24  TYR24      -0.2866
     25  N          5.2750  -27.6900   -2.7420 N.3    31  VAL31      -0.1245
     26  CA         6.0990  -26.5970   -3.2180 C.3    31  VAL31       0.1561
     27  C          7.5690  -27.0460   -3.3470 C.2    31  VAL31       0.2260
     28  O          8.4760  -26.2130   -3.4780 O.2    31  VAL31      -0.2867
     29  CB         5.9390  -25.3470   -2.3300 C.3    31  VAL31       0.0252
     30  CG1        4.5660  -24.7160   -2.5110 C.3    31  VAL31       0.0019
     31  CG2        6.2120  -25.6140   -0.8560 C.3    31  VAL31       0.0019
     32  N         10.1540  -25.4330   -6.0920 N.3    34  SER34      -0.1202
     33  CA        10.2090  -23.9800   -5.9290 C.3    34  SER34       0.2020
     34  C         11.4870  -23.6090   -5.1660 C.2    34  SER34       0.2619
     35  O         11.6300  -23.9410   -3.9840 O.2    34  SER34      -0.2717
     36  CB         8.9930  -23.4550   -5.2080 C.3    34  SER34       0.2103
     37  OG         9.1250  -22.0750   -4.8920 O.3    34  SER34      -0.2182
     38  N         12.3940  -22.8830   -5.8240 N.am   35  PHE35      -0.1961
     39  CA        13.6170  -22.4340   -5.1730 C.3    35  PHE35       0.1771
     40  C         13.3020  -21.4880   -4.0020 C.2    35  PHE35       0.2620
     41  O         14.1250  -21.3170   -3.1140 O.2    35  PHE35      -0.2715
     42  CB        14.5980  -21.7880   -6.1530 C.3    35  PHE35       0.0574
     43  CG        15.9820  -21.7490   -5.5590 C.ar   35  PHE35      -0.0200
     44  CD1       16.7650  -22.8960   -5.5260 C.ar   35  PHE35      -0.0042
     45  CD2       16.4520  -20.6040   -4.9320 C.ar   35  PHE35      -0.0042
     46  CE1       18.0190  -22.8790   -4.9330 C.ar   35  PHE35      -0.0003
     47  CE2       17.6990  -20.5930   -4.3250 C.ar   35  PHE35      -0.0003
     48  CZ        18.4810  -21.7290   -4.3320 C.ar   35  PHE35      -0.0000
     49  N         12.0920  -20.9200   -3.9790 N.am   36  HIS36      -0.1959
     50  CA        11.6210  -20.1190   -2.8440 C.3    36  HIS36       0.1787
     51  C         11.4320  -20.9710   -1.5840 C.2    36  HIS36       0.2620
     52  O         11.3900  -20.4340   -0.4940 O.2    36  HIS36      -0.2715
     53  CB        10.3230  -19.3900   -3.2150 C.3    36  HIS36       0.0785
     54  CG        10.5320  -18.4150   -4.3250 C.ar   36  HIS36       0.0821
     55  ND1       10.7850  -17.0740   -4.0940 N.ar   36  HIS36      -0.2267
     56  CD2       10.5950  -18.5910   -5.6650 C.ar   36  HIS36       0.1154
     57  CE1       10.9730  -16.4630   -5.2440 C.ar   36  HIS36       0.1986
     58  NE2       10.8400  -17.3640   -6.2250 N.ar   36  HIS36      -0.2212
     59  N         11.2820  -22.2880   -1.7490 N.am   37  TRP37      -0.1974
     60  CA        10.9720  -23.1770   -0.6340 C.3    37  TRP37       0.1640
     61  C         12.0150  -24.2790   -0.4310 C.2    37  TRP37       0.2290
     62  O         11.8190  -25.1090    0.4510 O.2    37  TRP37      -0.2864
     63  CB         9.5960  -23.8060   -0.8470 C.3    37  TRP37       0.0576
     64  CG         8.4900  -22.8340   -0.6260 C.ar   37  TRP37       0.0006
     65  CD1        7.8690  -22.0650   -1.5600 C.ar   37  TRP37       0.0946
     66  CD2        7.9100  -22.4930    0.6390 C.ar   37  TRP37       0.0152
     67  NE1        6.9040  -21.3030   -0.9710 N.ar   37  TRP37      -0.2442
     68  CE2        6.9130  -21.5340    0.3780 C.ar   37  TRP37       0.0810
     69  CE3        8.1100  -22.9320    1.9530 C.ar   37  TRP37       0.0012
     70  CZ2        6.1280  -20.9980    1.3890 C.ar   37  TRP37       0.0191
     71  CZ3        7.3380  -22.3890    2.9540 C.ar   37  TRP37       0.0001
     72  CH2        6.3660  -21.4290    2.6710 C.ar   37  TRP37       0.0015
     73  N         11.2480  -20.2580    3.5780 N.3    42  HIS42      -0.1226
     74  CA        10.6840  -19.2770    2.6400 C.3    42  HIS42       0.1752
     75  C         11.0010  -17.8690    3.1620 C.2    42  HIS42       0.2596
     76  O         10.3360  -17.3620    4.0570 O.2    42  HIS42      -0.2718
     77  CB         9.1780  -19.5390    2.4320 C.3    42  HIS42       0.0759
     78  CG         8.5450  -18.7110    1.3610 C.ar   42  HIS42       0.0818
     79  ND1        8.9770  -18.7370    0.0460 N.ar   42  HIS42      -0.2268
     80  CD2        7.4800  -17.8800    1.3930 C.ar   42  HIS42       0.1154
     81  CE1        8.2320  -17.9150   -0.6720 C.ar   42  HIS42       0.1986
     82  NE2        7.3020  -17.3710    0.1320 N.ar   42  HIS42      -0.2212
     83  N         12.0750  -17.2860    2.6250 N.am   43  HIS43      -0.1975
     84  CA        12.4590  -15.8720    2.8610 C.3    43  HIS43       0.1656
     85  C         12.5080  -15.5680    4.3560 C.2    43  HIS43       0.2291
     86  O         11.9670  -14.5480    4.8020 O.2    43  HIS43      -0.2864
     87  CB        11.5410  -14.9260    2.0690 C.3    43  HIS43       0.0771
     88  CG        11.6220  -15.1870    0.6020 C.ar   43  HIS43       0.0820
     89  ND1       12.7900  -14.9930   -0.1170 N.ar   43  HIS43      -0.2267
     90  CD2       10.7290  -15.7170   -0.2610 C.ar   43  HIS43       0.1154
     91  CE1       12.5970  -15.3550   -1.3780 C.ar   43  HIS43       0.1986
     92  NE2       11.3380  -15.8140   -1.4930 N.ar   43  HIS43      -0.2212
     93  N         11.2370  -15.9600    7.1400 N.3    45  LEU45      -0.1231
     94  CA        10.1440  -15.8420    8.0950 C.3    45  LEU45       0.1693
     95  C          9.2960  -17.1230    8.1750 C.2    45  LEU45       0.2592
     96  O          8.5980  -17.3180    9.1710 O.2    45  LEU45      -0.2718
     97  CB         9.2750  -14.6590    7.6590 C.3    45  LEU45       0.0284
     98  CG         9.8780  -13.2690    7.8650 C.3    45  LEU45       0.0019
     99  CD1        8.8390  -12.2000    7.5720 C.3    45  LEU45       0.0001
    100  CD2       10.3970  -13.1100    9.2880 C.3    45  LEU45       0.0001
    101  N          9.3390  -17.9660    7.1280 N.am   46  HIS46      -0.1976
    102  CA         8.3460  -19.0290    6.9200 C.3    46  HIS46       0.1656
    103  C          9.0210  -20.4060    6.7990 C.2    46  HIS46       0.2291
    104  O         10.0970  -20.5660    6.1970 O.2    46  HIS46      -0.2864
    105  CB         7.4570  -18.7080    5.7050 C.3    46  HIS46       0.0771
    106  CG         6.9780  -17.2910    5.6720 C.ar   46  HIS46       0.0820
    107  ND1        6.0400  -16.8190    6.5630 N.ar   46  HIS46      -0.2267
    108  CD2        7.3260  -16.2470    4.8900 C.ar   46  HIS46       0.1154
    109  CE1        5.8060  -15.5460    6.3260 C.ar   46  HIS46       0.1986
    110  NE2        6.5860  -15.1570    5.2830 N.ar   46  HIS46      -0.2212
    111  N          0.0850  -22.0240    6.8610 N.3    52  LEU52      -0.1245
    112  CA         0.5390  -20.6680    6.8340 C.3    52  LEU52       0.1561
    113  C         -0.5870  -19.7360    6.3640 C.2    52  LEU52       0.2260
    114  O         -0.3290  -18.6440    5.7950 O.2    52  LEU52      -0.2867
    115  CB         1.7660  -20.6210    5.9180 C.3    52  LEU52       0.0270
    116  CG         2.9670  -21.4660    6.3600 C.3    52  LEU52       0.0019
    117  CD1        4.1340  -21.2660    5.4120 C.3    52  LEU52       0.0001
    118  CD2        3.3880  -21.1270    7.7770 C.3    52  LEU52       0.0001
    119  N         -0.2490  -16.4230    7.8940 N.3    55  SER55      -0.1202
    120  CA         1.0590  -15.8380    7.5430 C.3    55  SER55       0.2020
    121  C          1.0270  -15.0310    6.2370 C.2    55  SER55       0.2618
    122  O          1.9520  -14.2750    5.9780 O.2    55  SER55      -0.2717
    123  CB         2.1230  -16.9210    7.4530 C.3    55  SER55       0.2103
    124  OG         2.2740  -17.5960    8.6970 O.3    55  SER55      -0.2182
    125  N          0.0120  -15.2250    5.3890 N.am   56  ILE56      -0.1979
    126  CA         0.0310  -14.6680    4.0180 C.3    56  ILE56       0.1595
    127  C         -0.1700  -13.1430    4.0750 C.2    56  ILE56       0.2287
    128  O          0.2750  -12.4230    3.1710 O.2    56  ILE56      -0.2864
    129  CB        -1.0230  -15.3600    3.1260 C.3    56  ILE56       0.0276
    130  CG1       -0.7420  -15.1640    1.6300 C.3    56  ILE56       0.0022
    131  CG2       -2.4320  -14.9130    3.5000 C.3    56  ILE56       0.0022
    132  CD1        0.4970  -15.8850    1.1200 C.3    56  ILE56       0.0001
    133  N          1.1620  -10.8060    5.7570 N.3    58  ARG58      -0.1231
    134  CA         2.3960  -10.0400    5.8340 C.3    58  ARG58       0.1694
    135  C          3.2600  -10.2490    4.5740 C.2    58  ARG58       0.2592
    136  O          4.1940   -9.4920    4.3540 O.2    58  ARG58      -0.2718
    137  CB         3.1320  -10.4300    7.1210 C.3    58  ARG58       0.0321
    138  CG         2.3210  -10.1920    8.3910 C.3    58  ARG58       0.0489
    139  CD         2.6780  -11.1030    9.5580 C.3    58  ARG58       0.2205
    140  NE         2.3770  -10.4580   10.8330 N.pl3  58  ARG58      -0.0865
    141  CZ         3.2610   -9.8060   11.5900 C.cat  58  ARG58       0.5346
    142  NH1        4.5580  -10.0140   11.4400 N.pl3  58  ARG58       0.1354
    143  NH2        2.8430   -8.9420   12.4970 N.pl3  58  ARG58       0.1354
    144  N          2.9490  -11.2580    3.7450 N.am   59  ALA59      -0.1966
    145  CA         3.7210  -11.5530    2.5220 C.3    59  ALA59       0.1713
    146  C          3.6070  -10.3900    1.5410 C.2    59  ALA59       0.2458
    147  O          2.5810   -9.7200    1.5330 O.2    59  ALA59      -0.2730
    148  CB         3.2200  -12.8270    1.8800 C.3    59  ALA59       0.0333
    149  N          4.6000  -10.1860    0.6380 N.am   60  PRO60      -0.2716
    150  CA         4.5080   -9.1920   -0.4400 C.3    60  PRO60       0.1536
    151  C          3.7360   -9.7010   -1.6670 C.2    60  PRO60       0.2598
    152  O          3.9890   -9.2850   -2.7980 O.2    60  PRO60      -0.2715
    153  CB         5.9820   -8.9840   -0.8280 C.3    60  PRO60       0.0310
    154  CG         6.5800  -10.3690   -0.6510 C.3    60  PRO60       0.0237
    155  CD         5.8670  -10.9320    0.5710 C.3    60  PRO60       0.0939
    156  N          2.8150  -10.6340   -1.4270 N.am   61  HIS61      -0.1974
    157  CA         2.0920  -11.3410   -2.4590 C.3    61  HIS61       0.1656
    158  C          0.8390  -11.9360   -1.8170 C.2    61  HIS61       0.2291
    159  O          0.6460  -11.7970   -0.6000 O.2    61  HIS61      -0.2864
    160  CB         2.9950  -12.4000   -3.1190 C.3    61  HIS61       0.0771
    161  CG         3.3930  -13.5420   -2.2380 C.ar   61  HIS61       0.0820
    162  ND1        2.4970  -14.5150   -1.8280 N.ar   61  HIS61      -0.2267
    163  CD2        4.5980  -13.9000   -1.7290 C.ar   61  HIS61       0.1154
    164  CE1        3.1360  -15.4140   -1.0950 C.ar   61  HIS61       0.1986
    165  NE2        4.4380  -15.0790   -1.0340 N.ar   61  HIS61      -0.2212
    166  N         -2.0830  -15.5500   -2.0260 N.3    63  ALA63      -0.1245
    167  CA        -2.0730  -17.0070   -2.0880 C.3    63  ALA63       0.1562
    168  C         -2.2330  -17.5220   -3.5220 C.2    63  ALA63       0.2260
    169  O         -2.0550  -18.7140   -3.7490 O.2    63  ALA63      -0.2867
    170  CB        -3.1580  -17.5470   -1.1950 C.3    63  ALA63       0.0290
    171  N         -0.2820  -17.4830   -5.8580 N.3    65  LEU65      -0.1231
    172  CA         0.9670  -18.0790   -6.3400 C.3    65  LEU65       0.1693
    173  C          1.0230  -19.5890   -6.0200 C.2    65  LEU65       0.2591
    174  O          1.7490  -20.3170   -6.6630 O.2    65  LEU65      -0.2718
    175  CB         2.1510  -17.3230   -5.7200 C.3    65  LEU65       0.0284
    176  CG         2.2740  -15.8330   -6.0630 C.3    65  LEU65       0.0019
    177  CD1        3.5430  -15.2360   -5.4610 C.3    65  LEU65       0.0001
    178  CD2        2.2540  -15.5960   -7.5720 C.3    65  LEU65       0.0001
    179  N          0.2430  -20.0580   -5.0400 N.am   66  LEU66      -0.1980
    180  CA         0.1210  -21.5110   -4.7330 C.3    66  LEU66       0.1596
    181  C         -0.4730  -22.3030   -5.9100 C.2    66  LEU66       0.2287
    182  O         -0.3350  -23.5300   -5.9570 O.2    66  LEU66      -0.2864
    183  CB        -0.7410  -21.6710   -3.4760 C.3    66  LEU66       0.0297
    184  CG        -0.0010  -21.3820   -2.1710 C.3    66  LEU66       0.0022
    185  CD1       -0.9490  -21.1840   -0.9920 C.3    66  LEU66       0.0001
    186  CD2        0.9790  -22.4820   -1.8720 C.3    66  LEU66       0.0001
    187  N          0.2470  -22.6240   -9.0280 N.3    68  LYS68      -0.1182
    188  CA         1.1840  -23.2770   -9.9230 C.3    68  LYS68       0.1909
    189  C          1.6050  -24.6590   -9.3800 C.2    68  LYS68       0.2634
    190  O          2.1800  -25.4530  -10.1320 O.2    68  LYS68      -0.2714
    191  CB         2.4120  -22.3850  -10.1410 C.2    68  LYS68      -0.0028
    192  CG         2.1040  -20.9650  -10.6020 C.2    68  LYS68      -0.0272
    193  CD         3.3000  -20.1300  -10.9870 C.3    68  LYS68       0.0462
    194  CE         4.5640  -20.4730  -10.2250 C.3    68  LYS68       0.1140
    195  NZ         5.6580  -19.5270  -10.5610 N.3    68  LYS68      -0.1310
    196  N          1.3130  -24.9540   -8.1040 N.am   69  PHE69      -0.1973
    197  CA         1.8150  -26.1530   -7.4180 C.3    69  PHE69       0.1639
    198  C          0.7100  -27.2010   -7.2300 C.2    69  PHE69       0.2290
    199  O         -0.4580  -26.8720   -7.0060 O.2    69  PHE69      -0.2864
    200  CB         2.4660  -25.7070   -6.1060 C.3    69  PHE69       0.0560
    201  CG         3.6540  -24.8140   -6.3720 C.ar   69  PHE69      -0.0200
    202  CD1        4.8490  -25.3580   -6.8110 C.ar   69  PHE69      -0.0042
    203  CD2        3.5440  -23.4400   -6.2840 C.ar   69  PHE69      -0.0042
    204  CE1        5.9290  -24.5550   -7.1280 C.ar   69  PHE69      -0.0003
    205  CE2        4.6290  -22.6310   -6.5920 C.ar   69  PHE69      -0.0003
    206  CZ         5.8090  -23.1890   -7.0240 C.ar   69  PHE69      -0.0000
@<TRIPOS>BOND
     1   193   192    1
     2   193   194    1
     3   192   191    2
     4   195   194    1
     5   191   188    1
     6   190   189    2
     7   188   189    1
     8   188   187    1
     9   189   196   am
    10   196   197    1
    11   178   176    1
    12   197   198    1
    13   197   200    1
    14   198   199    2
    15   204   206   ar
    16   204   202   ar
    17   206   205   ar
    18   202   201   ar
    19   174   173    2
    20   205   203   ar
    21   201   203   ar
    22   201   200    1
    23   172   173    1
    24   172   171    1
    25   172   175    1
    26    58    56   ar
    27    58    57   ar
    28    42    43    1
    29    42    39    1
    30    32    33    1
    31   176   175    1
    32   176   177    1
    33   173   179   am
    34   182   181    2
    35    33    36    1
    36    33    34    1
    37   181   180    1
    38    38    39    1
    39    38    34   am
    40    56    54   ar
    41    43    44   ar
    42    43    45   ar
    43    44    46   ar
    44    57    55   ar
    45    36    37    1
    46    39    40    1
    47    34    35    2
    48   179   180    1
    49    46    48   ar
    50    45    47   ar
    51   180   183    1
    52    48    47   ar
    53    54    55   ar
    54    54    53    1
    55    40    49   am
    56    40    41    2
    57    49    50    1
    58   169   168    2
    59   168   167    1
    60    28    27    2
    61   183   184    1
    62    27    26    1
    63    26    25    1
    64    26    29    1
    65    53    50    1
    66   160   157    1
    67   160   161    1
    68    50    51    1
    69   152   151    2
    70    30    29    1
    71   157   158    1
    72   157   156    1
    73    29    31    1
    74   161   162   ar
    75   161   163   ar
    76   184   186    1
    77   184   185    1
    78   167   166    1
    79   167   170    1
    80   162   164   ar
    81   158   159    2
    82    59    51   am
    83    59    60    1
    84   163   165   ar
    85   151   156   am
    86   151   150    1
    87    51    52    2
    88    65    67   ar
    89    65    64   ar
    90    92    91   ar
    91    92    90   ar
    92    91    89   ar
    93   164   165   ar
    94    67    68   ar
    95    63    60    1
    96    63    64    1
    97   153   154    1
    98   153   150    1
    99    81    79   ar
   100    81    82   ar
   101   154   155    1
   102    60    61    1
   103    64    66   ar
   104   150   149    1
   105    61    62    2
   106    90    88   ar
   107    89    88   ar
   108    79    78   ar
   109    82    80   ar
   110    68    66   ar
   111    68    70   ar
   112   155   149    1
   113    88    87    1
   114    21    19   ar
   115    21    23   ar
   116   149   146   am
   117    66    69   ar
   118    19    18   ar
   119     7     5    1
   120   132   130    1
   121    78    80   ar
   122    78    77    1
   123    70    72   ar
   124   147   146    2
   125   146   145    1
   126    24    23    1
   127    23    22   ar
   128   130   129    1
   129    18    17    1
   130    18    20   ar
   131     4     3    2
   132    17    14    1
   133    16    15    2
   134   148   145    1
   135    69    71   ar
   136     1     2    1
   137    87    84    1
   138     5     6    1
   139     5     2    1
   140    77    74    1
   141   145   144    1
   142    22    20   ar
   143    83    84    1
   144    83    75   am
   145    74    75    1
   146    74    73    1
   147    72    71   ar
   148     3     2    1
   149     3     8   am
   150    15    14    1
   151    84    85    1
   152    14    13    1
   153    13    10   am
   154   129   131    1
   155   129   126    1
   156    75    76    2
   157   128   127    2
   158    10     9    1
   159    10    11    2
   160   144   135   am
   161     9     8    1
   162     9    12    1
   163   126   127    1
   164   126   125    1
   165   136   135    2
   166    85    86    2
   167   135   134    1
   168   108   110   ar
   169   108   106   ar
   170   110   109   ar
   171   125   121   am
   172   117   116    1
   173   106   105    1
   174   106   107   ar
   175   105   102    1
   176   133   134    1
   177   114   113    2
   178   134   137    1
   179   115   116    1
   180   115   112    1
   181   122   121    2
   182   104   103    2
   183   121   120    1
   184   109   107   ar
   185   116   118    1
   186   113   112    1
   187   103   102    1
   188   112   111    1
   189   102   101    1
   190   137   138    1
   191   101    95   am
   192    93    94    1
   193   123   120    1
   194   123   124    1
   195   120   119    1
   196    99    98    1
   197    97    98    1
   198    97    94    1
   199    98   100    1
   200    94    95    1
   201    95    96    2
   202   138   139    1
   203   139   140    1
   204   140   141    2
   205   142   141    1
   206   141   143    1
