@<TRIPOS>MOLECULE
tmp/6o0aA02.pdb
 112 108 0 0 0
SMALL
GASTEIGER

@<TRIPOS>ATOM
      1  N         30.8840  -18.8530   13.2550 N.3   185  GLY185     -0.1210
      2  CA        31.1680  -18.3920   14.5980 C.3   185  GLY185      0.1956
      3  C         32.5650  -17.8080   14.7160 C.2   185  GLY185      0.2612
      4  O         33.4670  -18.1170   13.9370 O.2   185  GLY185     -0.2717
      5  N         32.7210  -16.9190   15.6920 N.am  186  LYS186     -0.1965
      6  CA        34.0130  -16.3560   16.0570 C.3   186  LYS186      0.1728
      7  C         34.4700  -16.9840   17.3630 C.2   186  LYS186      0.2616
      8  O         33.6530  -17.2810   18.2390 O.2   186  LYS186     -0.2715
      9  CB        33.9320  -14.8340   16.2010 C.3   186  LYS186      0.0311
     10  CG        33.4090  -14.1250   14.9410 C.3   186  LYS186      0.0038
     11  CD        33.5650  -12.6160   15.0260 C.3   186  LYS186      0.0206
     12  CE        32.8290  -12.0470   16.2250 C.3   186  LYS186      0.1093
     13  NZ        32.6730  -10.5620   16.1450 N.3   186  LYS186     -0.1314
     14  N         35.7810  -17.2040   17.4930 N.am  187  ALA187     -0.1963
     15  CA        36.2860  -17.8520   18.6950 C.3   187  ALA187      0.1728
     16  C         35.9150  -17.0520   19.9380 C.2   187  ALA187      0.2616
     17  O         36.1570  -15.8400   20.0100 O.2   187  ALA187     -0.2715
     18  CB        37.8050  -18.0300   18.6010 C.3   187  ALA187      0.0334
     19  N         35.3290  -17.7510   20.9180 N.am  188  GLY188     -0.1955
     20  CA        34.7830  -17.1470   22.1160 C.3   188  GLY188      0.1869
     21  C         33.2740  -17.0140   22.0970 C.2   188  GLY188      0.2309
     22  O         32.6660  -16.8060   23.1610 O.2   188  GLY188     -0.2863
     23  N         31.1420  -22.2020   21.9000 N.3   209  LEU209     -0.1231
     24  CA        31.4980  -23.0220   20.7510 C.3   209  LEU209      0.1693
     25  C         32.9420  -23.5010   20.8380 C.2   209  LEU209      0.2592
     26  O         33.8470  -22.7450   21.2050 O.2   209  LEU209     -0.2718
     27  CB        31.2960  -22.2350   19.4620 C.3   209  LEU209      0.0284
     28  CG        29.8110  -22.0290   19.1710 C.3   209  LEU209      0.0019
     29  CD1       29.6520  -21.1290   17.9380 C.3   209  LEU209      0.0001
     30  CD2       29.1490  -23.3930   18.9490 C.3   209  LEU209      0.0001
     31  N         33.1500  -24.7570   20.4750 N.am  210  LEU210     -0.1966
     32  CA        34.4540  -25.4110   20.4910 C.3   210  LEU210      0.1713
     33  C         34.9400  -25.7470   19.0820 C.2   210  LEU210      0.2458
     34  O         34.1490  -25.8260   18.1290 O.2   210  LEU210     -0.2730
     35  CB        34.3830  -26.6990   21.3260 C.3   210  LEU210      0.0310
     36  CG        34.0960  -26.5120   22.8150 C.3   210  LEU210      0.0022
     37  CD1       33.8840  -27.8560   23.4640 C.3   210  LEU210      0.0001
     38  CD2       35.2440  -25.7430   23.4860 C.3   210  LEU210      0.0001
     39  N         36.2450  -25.9760   18.9140 N.am  211  PRO211     -0.2716
     40  CA        36.7790  -26.2730   17.5760 C.3   211  PRO211      0.1536
     41  C         36.0670  -27.4390   16.9010 C.2   211  PRO211      0.2599
     42  O         35.8700  -28.5060   17.4910 O.2   211  PRO211     -0.2715
     43  CB        38.2520  -26.5960   17.8510 C.3   211  PRO211      0.0310
     44  CG        38.5690  -25.8380   19.0790 C.3   211  PRO211      0.0237
     45  CD        37.3180  -25.8180   19.9160 C.3   211  PRO211      0.0939
     46  N         35.6750  -27.2300   15.6470 N.am  212  SER212     -0.1936
     47  CA        34.9160  -28.2270   14.9020 C.3   212  SER212      0.2055
     48  C         34.9930  -27.8790   13.4220 C.2   212  SER212      0.2643
     49  O         35.5810  -26.8660   13.0300 O.2   212  SER212     -0.2714
     50  CB        33.4620  -28.2680   15.3780 C.3   212  SER212      0.2130
     51  OG        32.8030  -27.1020   14.9230 O.3   212  SER212     -0.2179
     52  N         34.3960  -28.7330   12.5930 N.am  213  GLU213     -0.1963
     53  CA        34.2080  -28.3800   11.1950 C.3   213  GLU213      0.1733
     54  C         33.2620  -27.1880   11.1060 C.2   213  GLU213      0.2616
     55  O         32.4890  -26.9190   12.0260 O.2   213  GLU213     -0.2715
     56  CB        33.6280  -29.5550   10.4180 C.3   213  GLU213      0.0429
     57  CG        34.4610  -30.8010   10.4920 C.3   213  GLU213      0.1163
     58  CD        35.2710  -31.0040    9.2390 C.2   213  GLU213      0.3649
     59  OE1       34.7290  -31.5720    8.2680 O.co2 213  GLU213     -0.2457
     60  OE2       36.4410  -30.5750    9.2180 O.co2 213  GLU213     -0.2457
     61  N         33.3120  -26.4810    9.9740 N.am  214  GLU214     -0.1977
     62  CA        32.4350  -25.3280    9.8090 C.3   214  GLU214      0.1602
     63  C         30.9850  -25.7490    9.6400 C.2   214  GLU214      0.2287
     64  O         30.0830  -24.9210    9.8100 O.2   214  GLU214     -0.2864
     65  CB        32.8970  -24.4830    8.6220 C.3   214  GLU214      0.0415
     66  CG        33.8320  -23.3520    9.0330 C.3   214  GLU214      0.1163
     67  CD        34.9610  -23.1190    8.0430 C.2   214  GLU214      0.3649
     68  OE1       35.1030  -23.9230    7.0950 O.co2 214  GLU214     -0.2457
     69  OE2       35.7110  -22.1320    8.2180 O.co2 214  GLU214     -0.2457
     70  N         29.5450  -27.8040   11.6660 N.3   216  GLN216     -0.1231
     71  CA        29.2070  -28.3540   12.9730 C.3   216  GLN216      0.1698
     72  C         29.1160  -27.2640   14.0340 C.2   216  GLN216      0.2592
     73  O         29.7450  -26.2060   13.9250 O.2   216  GLN216     -0.2718
     74  CB        30.2570  -29.3940   13.4120 C.3   216  GLN216      0.0381
     75  CG        30.3520  -30.5520   12.4550 C.3   216  GLN216      0.0905
     76  CD        31.5280  -31.4540   12.7500 C.2   216  GLN216      0.2608
     77  OE1       32.5540  -31.0160   13.2870 O.2   216  GLN216     -0.2717
     78  NE2       31.3840  -32.7210   12.4100 N.am  216  GLN216     -0.0878
     79  N         28.3310  -27.5430   15.0780 N.am  217  ARG217     -0.1980
     80  CA        28.3830  -26.8050   16.3380 C.3   217  ARG217      0.1597
     81  C         28.7890  -27.7920   17.4200 C.2   217  ARG217      0.2287
     82  O         28.1140  -28.8120   17.6110 O.2   217  ARG217     -0.2864
     83  CB        27.0340  -26.1720   16.6900 C.3   217  ARG217      0.0334
     84  CG        26.5210  -25.2020   15.6420 C.3   217  ARG217      0.0492
     85  CD        27.3390  -23.9150   15.6060 C.3   217  ARG217      0.2205
     86  NE        26.6130  -22.9000   14.8490 N.pl3 217  ARG217     -0.0865
     87  CZ        27.1780  -21.9780   14.0800 C.cat 217  ARG217      0.5346
     88  NH1       28.5040  -21.9170   13.9620 N.pl3 217  ARG217      0.1354
     89  NH2       26.4200  -21.1150   13.4220 N.pl3 217  ARG217      0.1354
     90  N         38.7960  -22.5210   22.5010 N.3   278  ALA278     -0.1245
     91  CA        38.4430  -21.8160   21.2690 C.3   278  ALA278      0.1562
     92  C         39.5020  -20.7800   20.8890 C.2   278  ALA278      0.2260
     93  O         39.9050  -20.6900   19.7220 O.2   278  ALA278     -0.2867
     94  CB        37.0640  -21.1540   21.4200 C.3   278  ALA278      0.0290
     95  N         42.8920  -22.5850   19.7840 N.3   281  GLU281     -0.1231
     96  CA        42.7930  -23.1810   18.4570 C.3   281  GLU281      0.1699
     97  C         42.8470  -22.1190   17.3640 C.2   281  GLU281      0.2592
     98  O         43.4840  -22.3210   16.3230 O.2   281  GLU281     -0.2718
     99  CB        41.5040  -23.9990   18.3360 C.3   281  GLU281      0.0402
    100  CG        41.4680  -24.8990   17.0870 C.3   281  GLU281      0.1161
    101  CD        40.8830  -24.2250   15.8530 C.2   281  GLU281      0.3649
    102  OE1       40.0510  -23.3060   15.9920 O.co2 281  GLU281     -0.2457
    103  OE2       41.2570  -24.6230   14.7310 O.co2 281  GLU281     -0.2457
    104  N         42.1770  -20.9820   17.5770 N.am  282  LYS282     -0.1980
    105  CA        42.1950  -19.9280   16.5680 C.3   282  LYS282      0.1596
    106  C         43.5830  -19.3030   16.4550 C.2   282  LYS282      0.2287
    107  O         44.1060  -19.1100   15.3490 O.2   282  LYS282     -0.2864
    108  CB        41.1430  -18.8640   16.8990 C.3   282  LYS282      0.0298
    109  CG        41.0250  -17.7660   15.8430 C.3   282  LYS282      0.0038
    110  CD        40.6300  -18.3440   14.4950 C.3   282  LYS282      0.0206
    111  CE        40.6090  -17.2690   13.4140 C.3   282  LYS282      0.1093
    112  NZ        39.7590  -16.1010   13.7930 N.3   282  LYS282     -0.1314
@<TRIPOS>BOND
     1    68    67   ar
     2    67    69   ar
     3    67    66    1
     4    59    58   ar
     5    65    66    1
     6    65    62    1
     7    60    58   ar
     8    58    57    1
     9    63    62    1
    10    63    64    2
    11    62    61    1
    12    61    54   am
    13    56    57    1
    14    56    53    1
    15    54    53    1
    16    54    55    2
    17    53    52    1
    18    70    71    1
    19    78    76   am
    20    75    76    1
    21    75    74    1
    22    52    48   am
    23    76    77    2
    24    71    74    1
    25    71    72    1
    26    49    48    2
    27     1     2    1
    28   111   112    1
    29   111   110    1
    30    48    47    1
    31    89    87    1
    32    73    72    2
    33     4     3    2
    34    88    87    1
    35    72    79   am
    36    87    86    2
    37   110   109    1
    38     2     3    1
    39     3     5   am
    40   103   101   ar
    41    86    85    1
    42    47    50    1
    43    47    46    1
    44    51    50    1
    45    10    11    1
    46    10     9    1
    47    11    12    1
    48    79    80    1
    49   107   106    2
    50    85    84    1
    51    84    83    1
    52    46    41   am
    53     5     6    1
    54   109   108    1
    55   101   102   ar
    56   101   100    1
    57     6     9    1
    58     6     7    1
    59    13    12    1
    60    98    97    2
    61    80    83    1
    62    80    81    1
    63   106   105    1
    64   105   108    1
    65   105   104    1
    66    41    42    2
    67    41    40    1
    68   100    99    1
    69     7    14   am
    70     7     8    2
    71    97   104   am
    72    97    96    1
    73    81    82    2
    74    14    15    1
    75    40    43    1
    76    40    39    1
    77    43    44    1
    78    29    28    1
    79    34    33    2
    80    99    96    1
    81    96    95    1
    82    18    15    1
    83    15    16    1
    84    39    33   am
    85    39    45    1
    86    30    28    1
    87    44    45    1
    88    33    32    1
    89    28    27    1
    90    27    24    1
    91    93    92    2
    92    16    17    2
    93    16    19   am
    94    31    32    1
    95    31    25   am
    96    32    35    1
    97    24    25    1
    98    24    23    1
    99    25    26    2
   100    92    91    1
   101    19    20    1
   102    91    94    1
   103    91    90    1
   104    35    36    1
   105    21    20    1
   106    21    22    2
   107    36    37    1
   108    36    38    1
