@<TRIPOS>MOLECULE
tmp/6o1gA01.pdb
 216 211 0 0 0
SMALL
GASTEIGER

@<TRIPOS>ATOM
      1  N        -47.5160   18.5020   24.7240 N.3   398  HIS398     -0.1241
      2  CA       -47.1490   19.6440   25.5600 C.3   398  HIS398      0.1621
      3  C        -45.6720   19.6640   25.9330 C.2   398  HIS398      0.2264
      4  O        -45.1780   20.7180   26.3600 O.2   398  HIS398     -0.2867
      5  CB       -48.0070   19.6880   26.8280 C.3   398  HIS398      0.0745
      6  CG       -47.5390   18.7840   27.9260 C.ar  398  HIS398      0.0817
      7  ND1      -48.0930   17.5430   28.1510 N.ar  398  HIS398     -0.2268
      8  CD2      -46.6010   18.9580   28.8890 C.ar  398  HIS398      0.1154
      9  CE1      -47.5030   16.9820   29.1910 C.ar  398  HIS398      0.1986
     10  NE2      -46.5910   17.8170   29.6540 N.ar  398  HIS398     -0.2212
     11  N        -44.0960   22.5940   24.1110 N.3   401  ASP401     -0.1239
     12  CA       -44.6250   23.9580   24.2130 C.3   401  ASP401      0.1674
     13  C        -43.5000   24.9760   24.1650 C.2   401  ASP401      0.2266
     14  O        -42.6220   24.9860   25.0300 O.2   401  ASP401     -0.2867
     15  CB       -45.4250   24.1610   25.5090 C.3   401  ASP401      0.1410
     16  CG       -46.7220   23.3580   25.5490 C.2   401  ASP401      0.3668
     17  OD1      -47.1490   22.8460   24.4920 O.co2 401  ASP401     -0.2456
     18  OD2      -47.3160   23.2510   26.6470 O.co2 401  ASP401     -0.2456
     19  N        -53.9590   19.9310   18.2240 N.3   439  TYR439     -0.1241
     20  CA       -53.4080   20.3370   19.5020 C.3   439  TYR439      0.1605
     21  C        -53.2420   21.8550   19.5520 C.2   439  TYR439      0.2264
     22  O        -53.0290   22.5190   18.5340 O.2   439  TYR439     -0.2867
     23  CB       -52.0750   19.6330   19.7600 C.3   439  TYR439      0.0534
     24  CG       -51.3940   20.1260   21.0120 C.ar  439  TYR439     -0.0201
     25  CD1      -51.6450   19.5300   22.2420 C.ar  439  TYR439     -0.0009
     26  CD2      -50.5190   21.2150   20.9680 C.ar  439  TYR439     -0.0009
     27  CE1      -51.0370   20.0000   23.3980 C.ar  439  TYR439      0.0417
     28  CE2      -49.9060   21.6850   22.1130 C.ar  439  TYR439      0.0417
     29  CZ       -50.1590   21.0710   23.3240 C.ar  439  TYR439      0.1957
     30  OH       -49.5460   21.5380   24.4650 O.3   439  TYR439     -0.2866
     31  N        -51.5050   24.8850   22.3890 N.3   441  VAL441     -0.1231
     32  CA       -50.5760   24.9640   23.5180 C.3   441  VAL441      0.1692
     33  C        -51.2870   25.2520   24.8410 C.2   441  VAL441      0.2593
     34  O        -50.8270   24.8110   25.9030 O.2   441  VAL441     -0.2718
     35  CB       -49.4840   26.0120   23.2170 C.3   441  VAL441      0.0266
     36  CG1      -48.9130   26.5910   24.5060 C.3   441  VAL441      0.0020
     37  CG2      -48.3860   25.3860   22.3870 C.3   441  VAL441      0.0020
     38  N        -52.3950   25.9980   24.8180 N.am  442  SER442     -0.1938
     39  CA       -53.1080   26.3110   26.0540 C.3   442  SER442      0.2055
     40  C        -54.2660   25.3490   26.3640 C.2   442  SER442      0.2643
     41  O        -55.0420   25.6180   27.2860 O.2   442  SER442     -0.2714
     42  CB       -53.6160   27.7690   26.0350 C.3   442  SER442      0.2130
     43  OG       -54.2710   28.1330   24.8270 O.3   442  SER442     -0.2179
     44  N        -54.3780   24.2200   25.6620 N.am  443  GLU443     -0.1963
     45  CA       -55.4720   23.2920   25.9030 C.3   443  GLU443      0.1733
     46  C        -54.9640   21.8590   25.9140 C.2   443  GLU443      0.2617
     47  O        -53.9580   21.5180   25.2880 O.2   443  GLU443     -0.2715
     48  CB       -56.5960   23.4670   24.8670 C.3   443  GLU443      0.0429
     49  CG       -57.6690   24.4450   25.3420 C.3   443  GLU443      0.1163
     50  CD       -58.3370   25.2200   24.2210 C.2   443  GLU443      0.3649
     51  OE1      -58.6790   24.6210   23.1810 O.co2 443  GLU443     -0.2457
     52  OE2      -58.5250   26.4440   24.3870 O.co2 443  GLU443     -0.2457
     53  N        -55.6850   21.0170   26.6450 N.am  444  GLY444     -0.1940
     54  CA       -55.3300   19.6370   26.8730 C.3   444  GLY444      0.2014
     55  C        -55.7660   18.6360   25.8290 C.2   444  GLY444      0.2638
     56  O        -55.4980   17.4410   25.9990 O.2   444  GLY444     -0.2714
     57  N        -56.4220   19.0630   24.7510 N.am  445  ASN445     -0.1972
     58  CA       -56.9210   18.1130   23.7630 C.3   445  ASN445      0.1688
     59  C        -55.8070   17.6160   22.8520 C.2   445  ASN445      0.2292
     60  O        -54.9200   18.3760   22.4510 O.2   445  ASN445     -0.2864
     61  CB       -58.0280   18.7400   22.9220 C.3   445  ASN445      0.1181
     62  CG       -59.2240   19.1350   23.7560 C.2   445  ASN445      0.2629
     63  OD1      -59.8950   18.2820   24.3520 O.2   445  ASN445     -0.2716
     64  ND2      -59.4840   20.4350   23.8270 N.am  445  ASN445     -0.0877
     65  N        -53.2700   15.6180   23.2910 N.3   447  ASP447     -0.1239
     66  CA       -51.9410   15.7290   23.8930 C.3   447  ASP447      0.1674
     67  C        -51.1180   14.5160   23.4680 C.2   447  ASP447      0.2266
     68  O        -50.9400   13.5440   24.2060 O.2   447  ASP447     -0.2867
     69  CB       -52.0430   15.8420   25.4100 C.3   447  ASP447      0.1410
     70  CG       -50.7730   16.4260   26.0490 C.2   447  ASP447      0.3668
     71  OD1      -49.7710   16.6580   25.3330 O.co2 447  ASP447     -0.2456
     72  OD2      -50.7840   16.6400   27.2770 O.co2 447  ASP447     -0.2456
     73  N        -63.2180   17.1180   37.9830 N.3   516  TYR516     -0.1241
     74  CA       -62.5300   18.2090   37.3120 C.3   516  TYR516      0.1605
     75  C        -63.5680   19.1310   36.6750 C.2   516  TYR516      0.2264
     76  O        -63.6210   19.3130   35.4650 O.2   516  TYR516     -0.2867
     77  CB       -61.5580   17.6830   36.2560 C.3   516  TYR516      0.0534
     78  CG       -60.2680   17.1060   36.8060 C.ar  516  TYR516     -0.0201
     79  CD1      -59.4200   17.8900   37.5620 C.ar  516  TYR516     -0.0009
     80  CD2      -59.8930   15.7870   36.5500 C.ar  516  TYR516     -0.0009
     81  CE1      -58.2440   17.3960   38.0670 C.ar  516  TYR516      0.0417
     82  CE2      -58.7050   15.2690   37.0580 C.ar  516  TYR516      0.0417
     83  CZ       -57.8770   16.0950   37.8170 C.ar  516  TYR516      0.1957
     84  OH       -56.6800   15.6530   38.3450 O.3   516  TYR516     -0.2866
     85  N        -62.6990   21.5050   33.5300 N.3   519  TYR519     -0.1227
     86  CA       -62.2320   21.0540   32.2250 C.3   519  TYR519      0.1736
     87  C        -63.1950   20.0100   31.6700 C.2   519  TYR519      0.2595
     88  O        -64.0910   19.5250   32.3660 O.2   519  TYR519     -0.2718
     89  CB       -60.8050   20.4830   32.3140 C.3   519  TYR519      0.0548
     90  CG       -59.8000   21.4000   32.9980 C.ar  519  TYR519     -0.0200
     91  CD1      -59.2070   22.4540   32.3110 C.ar  519  TYR519     -0.0009
     92  CD2      -59.4470   21.2080   34.3300 C.ar  519  TYR519     -0.0009
     93  CE1      -58.2950   23.2930   32.9320 C.ar  519  TYR519      0.0417
     94  CE2      -58.5350   22.0460   34.9600 C.ar  519  TYR519      0.0417
     95  CZ       -57.9600   23.0840   34.2530 C.ar  519  TYR519      0.1957
     96  OH       -57.0490   23.9200   34.8690 O.3   519  TYR519     -0.2866
     97  N        -63.0010   19.6580   30.3990 N.am  520  LYS520     -0.1966
     98  CA       -63.8560   18.7020   29.7020 C.3   520  LYS520      0.1728
     99  C        -63.0670   17.4200   29.4640 C.2   520  LYS520      0.2616
    100  O        -62.2050   17.3710   28.5800 O.2   520  LYS520     -0.2715
    101  CB       -64.3700   19.2830   28.3860 C.3   520  LYS520      0.0311
    102  CG       -65.4130   18.4200   27.6760 C.3   520  LYS520      0.0038
    103  CD       -66.6790   19.2200   27.3870 C.3   520  LYS520      0.0206
    104  CE       -67.6990   18.4220   26.5790 C.3   520  LYS520      0.1093
    105  NZ       -68.9420   19.2260   26.3360 N.3   520  LYS520     -0.1314
    106  N        -63.3560   16.3870   30.2500 N.am  521  ILE521     -0.1977
    107  CA       -62.7480   15.0800   30.0260 C.3   521  ILE521      0.1596
    108  C        -63.4920   14.3940   28.8910 C.2   521  ILE521      0.2287
    109  O        -64.7070   14.1840   28.9680 O.2   521  ILE521     -0.2864
    110  CB       -62.7640   14.2290   31.2990 C.3   521  ILE521      0.0276
    111  CG1      -61.8220   14.8640   32.3170 C.3   521  ILE521      0.0022
    112  CG2      -62.3680   12.7660   30.9750 C.3   521  ILE521      0.0022
    113  CD1      -62.2180   14.6310   33.7310 C.3   521  ILE521      0.0001
    114  N        -59.6560   10.6580   26.1850 N.3   525  MET525     -0.1245
    115  CA       -58.8670   10.7140   27.4060 C.3   525  MET525      0.1570
    116  C        -59.2630    9.5620   28.3150 C.2   525  MET525      0.2261
    117  O        -60.4320    9.1660   28.3560 O.2   525  MET525     -0.2867
    118  CB       -59.0830   12.0370   28.1520 C.3   525  MET525      0.0387
    119  CG       -58.6880   13.2760   27.3760 C.3   525  MET525      0.0595
    120  SD       -59.2070   14.7640   28.2480 S.3   525  MET525     -0.1393
    121  CE       -58.5420   16.0440   27.1880 C.3   525  MET525      0.0692
    122  N        -49.2710    8.7130   41.8700 N.3   532  ASP532     -0.1225
    123  CA       -49.6300    9.4150   40.6440 C.3   532  ASP532      0.1805
    124  C        -48.3750    9.6730   39.8210 C.2   532  ASP532      0.2598
    125  O        -47.2520    9.6260   40.3340 O.2   532  ASP532     -0.2718
    126  CB       -50.3540   10.7310   40.9900 C.3   532  ASP532      0.1424
    127  CG       -50.9040   11.4800   39.7710 C.2   532  ASP532      0.3668
    128  OD1      -51.1050   10.9100   38.6750 O.co2 532  ASP532     -0.2456
    129  OD2      -51.1700   12.6840   39.9380 O.co2 532  ASP532     -0.2456
    130  N        -48.5800    9.9220   38.5300 N.am  533  ALA533     -0.1966
    131  CA       -47.5600   10.5890   37.7350 C.3   533  ALA533      0.1728
    132  C        -47.4870   12.0680   38.1320 C.2   533  ALA533      0.2616
    133  O        -48.4530   12.6500   38.6490 O.2   533  ALA533     -0.2715
    134  CB       -47.8550   10.4320   36.2390 C.3   533  ALA533      0.0334
    135  N        -46.3190   12.6760   37.9120 N.am  534  CYS534     -0.1954
    136  CA       -46.1060   14.0640   38.3300 C.3   534  CYS534      0.1843
    137  C        -45.2680   14.7920   37.2690 C.2   534  CYS534      0.2625
    138  O        -45.0890   14.3130   36.1420 O.2   534  CYS534     -0.2714
    139  CB       -45.4690   14.1120   39.7270 C.3   534  CYS534      0.0997
    140  SG       -45.5360   15.7480   40.5320 S.3   534  CYS534     -0.0797
    141  N        -44.7720   15.9790   37.6230 N.am  535  LYS535     -0.1977
    142  CA       -43.9950   16.7780   36.6810 C.3   535  LYS535      0.1596
    143  C        -42.7420   16.0160   36.2590 C.2   535  LYS535      0.2287
    144  O        -42.0040   15.4900   37.0940 O.2   535  LYS535     -0.2864
    145  CB       -43.6240   18.1350   37.3050 C.3   535  LYS535      0.0298
    146  CG       -44.7320   19.1910   37.2370 C.3   535  LYS535      0.0038
    147  CD       -44.4010   20.4150   38.0810 C.3   535  LYS535      0.0206
    148  CE       -45.4990   21.4820   38.0090 C.3   535  LYS535      0.1093
    149  NZ       -45.1510   22.7020   38.7980 N.3   535  LYS535     -0.1314
    150  N        -44.5120   13.4840   32.3390 N.3   538  SER538     -0.1217
    151  CA       -45.2400   13.8450   31.1260 C.3   538  SER538      0.1889
    152  C        -44.7460   13.0590   29.9250 C.2   538  SER538      0.2288
    153  O        -43.5400   12.9800   29.6720 O.2   538  SER538     -0.2866
    154  CB       -45.0800   15.3430   30.8380 C.3   538  SER538      0.2089
    155  OG       -45.4520   16.1330   31.9450 O.3   538  SER538     -0.2183
    156  N        -49.0370    9.7100   29.7060 N.3   556  THR556     -0.1203
    157  CA       -49.0850   10.6450   30.8270 C.3   556  THR556      0.1994
    158  C        -49.2340   12.0850   30.3390 C.2   556  THR556      0.2619
    159  O        -48.3920   12.5990   29.6000 O.2   556  THR556     -0.2717
    160  CB       -47.8270   10.5050   31.6820 C.3   556  THR556      0.1784
    161  OG1      -47.7990    9.2020   32.2810 O.3   556  THR556     -0.2211
    162  CG2      -47.7950   11.5840   32.7660 C.3   556  THR556      0.0376
    163  N        -50.3250   12.7360   30.7330 N.am  557  SER557     -0.1937
    164  CA       -50.6080   14.0800   30.2440 C.3   557  SER557      0.2055
    165  C        -50.6670   15.0930   31.3750 C.2   557  SER557      0.2643
    166  O        -49.8530   16.0270   31.3920 O.2   557  SER557     -0.2714
    167  CB       -51.9120   14.0840   29.4360 C.3   557  SER557      0.2130
    168  OG       -52.2760   15.3790   29.0400 O.3   557  SER557     -0.2179
    169  N        -51.5680   14.9200   32.3440 N.am  558  TRP558     -0.1959
    170  CA       -51.9150   16.0360   33.2150 C.3   558  TRP558      0.1771
    171  C        -52.5150   15.5490   34.5270 C.2   558  TRP558      0.2620
    172  O        -52.9940   14.4160   34.6420 O.2   558  TRP558     -0.2715
    173  CB       -52.8890   16.9740   32.4950 C.3   558  TRP558      0.0590
    174  CG       -53.2330   18.1990   33.2280 C.ar  558  TRP558      0.0006
    175  CD1      -52.5250   19.3650   33.2570 C.ar  558  TRP558      0.0946
    176  CD2      -54.4020   18.4140   34.0240 C.ar  558  TRP558      0.0152
    177  NE1      -53.1820   20.2950   34.0270 N.ar  558  TRP558     -0.2442
    178  CE2      -54.3350   19.7350   34.5140 C.ar  558  TRP558      0.0810
    179  CE3      -55.4950   17.6160   34.3740 C.ar  558  TRP558      0.0012
    180  CZ2      -55.3240   20.2780   35.3390 C.ar  558  TRP558      0.0191
    181  CZ3      -56.4760   18.1540   35.1900 C.ar  558  TRP558      0.0001
    182  CH2      -56.3870   19.4740   35.6620 C.ar  558  TRP558      0.0015
    183  N        -52.4470   16.4290   35.5200 N.am  559  GLY559     -0.1940
    184  CA       -53.2520   16.3340   36.7270 C.3   559  GLY559      0.2014
    185  C        -53.2260   17.6710   37.4340 C.2   559  GLY559      0.2639
    186  O        -52.4310   18.5500   37.0880 O.2   559  GLY559     -0.2714
    187  N        -54.0960   17.8150   38.4370 N.am  560  GLU560     -0.1963
    188  CA       -54.1800   19.0880   39.1500 C.3   560  GLU560      0.1733
    189  C        -52.9720   19.3150   40.0600 C.2   560  GLU560      0.2617
    190  O        -52.0980   20.1270   39.7380 O.2   560  GLU560     -0.2715
    191  CB       -55.4880   19.1800   39.9380 C.3   560  GLU560      0.0429
    192  CG       -55.8560   20.6080   40.3840 C.3   560  GLU560      0.1163
    193  CD       -55.7580   21.6490   39.2670 C.2   560  GLU560      0.3649
    194  OE1      -54.7440   22.3820   39.2320 O.co2 560  GLU560     -0.2457
    195  OE2      -56.6990   21.7480   38.4400 O.co2 560  GLU560     -0.2457
    196  N        -52.9090   18.6390   41.2010 N.am  561  GLY561     -0.1940
    197  CA       -51.6540   18.5890   41.9340 C.3   561  GLY561      0.2014
    198  C        -50.8400   17.3740   41.5200 C.2   561  GLY561      0.2639
    199  O        -50.8210   17.0120   40.3410 O.2   561  GLY561     -0.2714
    200  N        -50.1750   16.7210   42.4680 N.am  562  CYS562     -0.1967
    201  CA       -49.6560   15.3770   42.2450 C.3   562  CYS562      0.1712
    202  C        -50.1020   14.4890   43.3980 C.2   562  CYS562      0.2296
    203  O        -49.9150   14.8420   44.5670 O.2   562  CYS562     -0.2864
    204  CB       -48.1250   15.3690   42.0980 C.3   562  CYS562      0.0983
    205  SG       -47.5160   16.2060   40.5880 S.3   562  CYS562     -0.0798
    206  N        -55.0320   11.1130   37.6020 N.3   569  GLY569     -0.1210
    207  CA       -54.2450   11.5080   36.4480 C.3   569  GLY569      0.1956
    208  C        -55.0450   11.3790   35.1620 C.2   569  GLY569      0.2611
    209  O        -55.8380   10.4520   34.9860 O.2   569  GLY569     -0.2717
    210  N        -54.8470   12.3410   34.2620 N.am  570  VAL570     -0.1979
    211  CA       -55.4690   12.3320   32.9420 C.3   570  VAL570      0.1595
    212  C        -54.3970   11.9730   31.9220 C.2   570  VAL570      0.2287
    213  O        -53.3430   12.6230   31.8550 O.2   570  VAL570     -0.2864
    214  CB       -56.1330   13.6780   32.6040 C.3   570  VAL570      0.0276
    215  CG1      -56.6260   13.6900   31.1630 C.3   570  VAL570      0.0022
    216  CG2      -57.3000   13.9540   33.5460 C.3   570  VAL570      0.0022
@<TRIPOS>BOND
     1    19    20    1
     2    22    21    2
     3    20    21    1
     4    20    23    1
     5    23    24    1
     6    26    24   ar
     7    26    28   ar
     8    24    25   ar
     9    28    29   ar
    10    25    27   ar
    11    37    35    1
    12    31    32    1
    13    60    59    2
    14    59    58    1
    15    61    62    1
    16    61    58    1
    17    51    50   ar
    18    35    32    1
    19    35    36    1
    20    65    66    1
    21    29    27   ar
    22    29    30    1
    23    67    66    1
    24    67    68    2
    25    32    33    1
    26    62    64   am
    27    62    63    2
    28    58    57    1
    29    66    69    1
    30    11    12    1
    31    13    12    1
    32    13    14    2
    33    12    15    1
    34    50    52   ar
    35    50    49    1
    36    17    16   ar
    37     1     2    1
    38    57    55   am
    39    38    33   am
    40    38    39    1
    41    43    42    1
    42    33    34    2
    43    48    49    1
    44    48    45    1
    45    47    46    2
    46    71    70   ar
    47    69    70    1
    48    15    16    1
    49    16    18   ar
    50     2     3    1
    51     2     5    1
    52    44    45    1
    53    44    40   am
    54    55    56    2
    55    55    54    1
    56    45    46    1
    57    46    53   am
    58     3     4    2
    59    42    39    1
    60    70    72   ar
    61    39    40    1
    62   114   115    1
    63   105   104    1
    64    40    41    2
    65   104   103    1
    66    53    54    1
    67     5     6    1
    68   121   120    1
    69   119   118    1
    70   119   120    1
    71   103   102    1
    72   115   118    1
    73   115   116    1
    74   102   101    1
    75     6     7   ar
    76     6     8   ar
    77     7     9   ar
    78   116   117    2
    79   101    98    1
    80   100    99    2
    81     8    10   ar
    82   108   109    2
    83   108   107    1
    84   168   167    1
    85     9    10   ar
    86   167   164    1
    87    99    98    1
    88    99   106   am
    89   159   158    2
    90   153   152    2
    91    98    97    1
    92   156   157    1
    93   152   151    1
    94   107   106    1
    95   107   110    1
    96   164   163    1
    97   164   165    1
    98   158   163   am
    99   158   157    1
   100    97    87   am
   101   157   160    1
   102   154   151    1
   103   154   155    1
   104   112   110    1
   105   151   150    1
   106   215   214    1
   107   110   111    1
   108   165   166    2
   109   165   169   am
   110    87    86    1
   111    87    88    2
   112   160   161    1
   113   160   162    1
   114   213   212    2
   115   212   211    1
   116    86    89    1
   117    86    85    1
   118    91    93   ar
   119    91    90   ar
   120    89    90    1
   121   111   113    1
   122   169   170    1
   123   173   170    1
   124   173   174    1
   125   214   211    1
   126   214   216    1
   127    93    95   ar
   128   211   210    1
   129    90    92   ar
   130   170   171    1
   131   174   175   ar
   132   174   176   ar
   133   175   177   ar
   134   176   179   ar
   135   176   178   ar
   136   177   178   ar
   137    95    96    1
   138    95    94   ar
   139   210   208   am
   140    92    94   ar
   141   179   181   ar
   142   178   180   ar
   143   171   172    2
   144   171   183   am
   145   209   208    2
   146   208   207    1
   147   181   182   ar
   148   180   182   ar
   149    76    75    2
   150   183   184    1
   151   138   137    2
   152   134   131    1
   153    77    78    1
   154    77    74    1
   155   143   142    1
   156   143   144    2
   157   207   206    1
   158    80    78   ar
   159    80    82   ar
   160    75    74    1
   161   142   145    1
   162   142   141    1
   163   184   185    1
   164    78    79   ar
   165    82    83   ar
   166   186   185    2
   167   146   145    1
   168   146   147    1
   169   137   141   am
   170   137   136    1
   171    74    73    1
   172   185   187   am
   173    79    81   ar
   174   131   132    1
   175   131   130    1
   176    83    81   ar
   177    83    84    1
   178   135   132   am
   179   135   136    1
   180   148   147    1
   181   148   149    1
   182   132   133    2
   183   136   139    1
   184   187   188    1
   185   195   193   ar
   186   130   124   am
   187   128   127   ar
   188   188   191    1
   189   188   189    1
   190   194   193   ar
   191   193   192    1
   192   139   140    1
   193   190   189    2
   194   127   129   ar
   195   127   126    1
   196   124   125    2
   197   124   123    1
   198   191   192    1
   199   189   196   am
   200   199   198    2
   201   140   205    1
   202   205   204    1
   203   123   126    1
   204   123   122    1
   205   196   197    1
   206   198   197    1
   207   198   200   am
   208   204   201    1
   209   201   200    1
   210   201   202    1
   211   202   203    2
