@<TRIPOS>MOLECULE
tmp/6o1tA00.pdb
 172 159 0 0 0
SMALL
GASTEIGER

@<TRIPOS>ATOM
      1  N         84.1990   25.8380   35.9000 N.3    27  LEU27      -0.1245
      2  CA        85.0730   27.0410   35.9540 C.3    27  LEU27       0.1561
      3  C         85.8690   27.0410   37.2620 C.2    27  LEU27       0.2260
      4  O         87.0680   27.3250   37.1820 O.2    27  LEU27      -0.2867
      5  CB        84.2410   28.3200   35.7950 C.3    27  LEU27       0.0270
      6  CG        84.1920   28.8770   34.3740 C.3    27  LEU27       0.0019
      7  CD1       83.1050   29.9270   34.2390 C.3    27  LEU27       0.0001
      8  CD2       85.5440   29.4380   33.9570 C.3    27  LEU27       0.0001
      9  N         90.0390   26.8310   37.4270 N.3    31  LEU31      -0.1245
     10  CA        90.7680   27.9930   37.9970 C.3    31  LEU31       0.1561
     11  C         91.8510   27.5180   38.9800 C.2    31  LEU31       0.2260
     12  O         92.9090   28.1580   38.9770 O.2    31  LEU31      -0.2867
     13  CB        89.7720   28.9730   38.6310 C.3    31  LEU31       0.0270
     14  CG        88.9500   29.8050   37.6440 C.3    31  LEU31       0.0019
     15  CD1       87.8460   30.5700   38.3610 C.3    31  LEU31       0.0001
     16  CD2       89.8180   30.7670   36.8400 C.3    31  LEU31       0.0001
     17  N         89.7540   28.2960   29.9340 N.3    36  THR36      -0.1203
     18  CA        88.9640   29.0450   30.9530 C.3    36  THR36       0.1994
     19  C         88.0490   30.0160   30.1860 C.2    36  THR36       0.2617
     20  O         86.8290   30.0600   30.4720 O.2    36  THR36      -0.2717
     21  CB        89.8600   29.6930   32.0300 C.3    36  THR36       0.1784
     22  OG1       90.5160   30.8520   31.5140 O.3    36  THR36      -0.2211
     23  CG2       90.9210   28.7610   32.5800 C.3    36  THR36       0.0376
     24  N         88.6070   30.6980   29.1880 N.am   37  GLU37      -0.1979
     25  CA        87.8690   31.6310   28.2910 C.3    37  GLU37       0.1602
     26  C         86.7410   30.8710   27.5760 C.2    37  GLU37       0.2287
     27  O         85.6120   31.4210   27.5180 O.2    37  GLU37      -0.2864
     28  CB        88.8490   32.2960   27.3240 C.3    37  GLU37       0.0415
     29  CG        90.0480   32.9020   28.0460 C.3    37  GLU37       0.1163
     30  CD        90.7550   34.0300   27.3170 C.2    37  GLU37       0.3649
     31  OE1       90.1500   34.5930   26.3710 O.co2  37  GLU37      -0.2457
     32  OE2       91.8970   34.3710   27.7280 O.co2  37  GLU37      -0.2457
     33  N         83.9990   30.2790   30.0170 N.3    40  LEU40      -0.1245
     34  CA        83.3020   31.5870   30.2230 C.3    40  LEU40       0.1561
     35  C         82.3360   31.8740   29.0620 C.2    40  LEU40       0.2260
     36  O         81.2190   32.3570   29.3260 O.2    40  LEU40      -0.2867
     37  CB        84.3290   32.7110   30.3400 C.3    40  LEU40       0.0270
     38  CG        84.9600   32.8570   31.7120 C.3    40  LEU40       0.0019
     39  CD1       86.1690   33.7640   31.6410 C.3    40  LEU40       0.0001
     40  CD2       83.9450   33.3920   32.7030 C.3    40  LEU40       0.0001
     41  N         79.2870   29.6520   29.8570 N.3    43  LEU43      -0.1231
     42  CA        78.5000   30.2180   30.9920 C.3    43  LEU43       0.1693
     43  C         77.6690   31.3980   30.4740 C.2    43  LEU43       0.2591
     44  O         76.4480   31.4300   30.7280 O.2    43  LEU43      -0.2718
     45  CB        79.4460   30.6610   32.1170 C.3    43  LEU43       0.0284
     46  CG        78.7670   31.3240   33.3210 C.3    43  LEU43       0.0019
     47  CD1       77.7030   30.4060   33.9120 C.3    43  LEU43       0.0001
     48  CD2       79.7760   31.7170   34.3930 C.3    43  LEU43       0.0001
     49  N         78.2890   32.3200   29.7470 N.am   44  ILE44      -0.1980
     50  CA        77.6170   33.5980   29.3600 C.3    44  ILE44       0.1595
     51  C         76.5230   33.3270   28.3130 C.2    44  ILE44       0.2287
     52  O         75.4200   33.8740   28.4980 O.2    44  ILE44      -0.2864
     53  CB        78.6500   34.6490   28.9090 C.3    44  ILE44       0.0276
     54  CG1       79.5660   34.9990   30.0800 C.3    44  ILE44       0.0022
     55  CG2       77.9660   35.8820   28.3420 C.3    44  ILE44       0.0022
     56  CD1       80.7630   35.8230   29.7210 C.3    44  ILE44       0.0001
     57  N         90.3470   37.7540   25.2170 N.3    66  ASP66      -0.1225
     58  CA        91.5030   37.5090   26.1290 C.3    66  ASP66       0.1805
     59  C         91.2300   38.1060   27.5150 C.2    66  ASP66       0.2598
     60  O         90.9140   39.3000   27.6120 O.2    66  ASP66      -0.2718
     61  CB        92.8150   38.0760   25.5720 C.3    66  ASP66       0.1424
     62  CG        94.0770   37.4310   26.1390 C.2    66  ASP66       0.3668
     63  OD1       93.9760   36.3380   26.7480 O.co2  66  ASP66      -0.2456
     64  OD2       95.1670   38.0190   25.9680 O.co2  66  ASP66      -0.2456
     65  N         91.3690   37.2880   28.5550 N.am   67  ILE67      -0.1966
     66  CA        91.3050   37.7350   29.9770 C.3    67  ILE67       0.1727
     67  C         92.6670   38.3220   30.3420 C.2    67  ILE67       0.2617
     68  O         93.6670   37.6340   30.1670 O.2    67  ILE67      -0.2715
     69  CB        90.8840   36.5810   30.9010 C.3    67  ILE67       0.0290
     70  CG1       89.4870   36.0880   30.5030 C.3    67  ILE67       0.0022
     71  CG2       90.9880   36.9910   32.3670 C.3    67  ILE67       0.0023
     72  CD1       88.7930   35.2440   31.5340 C.3    67  ILE67       0.0001
     73  N         92.6710   39.5680   30.8080 N.am   68  THR68      -0.1937
     74  CA        93.8690   40.3730   31.1440 C.3    68  THR68       0.2028
     75  C         93.8690   40.6590   32.6510 C.2    68  THR68       0.2642
     76  O         92.7740   40.6700   33.2500 O.2    68  THR68      -0.2714
     77  CB        93.8670   41.6040   30.2350 C.3    68  THR68       0.1808
     78  OG1       94.3320   41.0770   28.9940 O.3    68  THR68      -0.2208
     79  CG2       94.7430   42.7580   30.6610 C.3    68  THR68       0.0379
     80  N         95.0500   40.8570   33.2320 N.am   69  MET69      -0.1976
     81  CA        95.2310   41.3290   34.6300 C.3    69  MET69       0.1605
     82  C         96.2370   42.4790   34.6220 C.2    69  MET69       0.2287
     83  O         97.3640   42.2590   34.1720 O.2    69  MET69      -0.2864
     84  CB        95.7180   40.2020   35.5490 C.3    69  MET69       0.0413
     85  CG        94.5950   39.6000   36.3680 C.3    69  MET69       0.0598
     86  SD        95.1540   38.6880   37.8320 S.3    69  MET69      -0.1393
     87  CE        96.1150   39.9260   38.7010 C.3    69  MET69       0.0692
     88  N         91.2140   42.6850   37.2270 N.3    79  VAL79      -0.1245
     89  CA        90.9060   41.5380   36.3290 C.3    79  VAL79       0.1561
     90  C         89.8930   42.0210   35.2890 C.2    79  VAL79       0.2260
     91  O         88.8340   42.5080   35.7090 O.2    79  VAL79      -0.2867
     92  CB        90.3620   40.3540   37.1420 C.3    79  VAL79       0.0252
     93  CG1       90.0550   39.1470   36.2760 C.3    79  VAL79       0.0019
     94  CG2       91.3110   39.9690   38.2620 C.3    79  VAL79       0.0019
     95  N         87.6400   41.2600   31.7010 N.3    81  ILE81      -0.1245
     96  CA        86.9100   40.2440   30.8830 C.3    81  ILE81       0.1561
     97  C         86.1740   40.9540   29.7470 C.2    81  ILE81       0.2260
     98  O         85.1180   41.5460   29.9650 O.2    81  ILE81      -0.2867
     99  CB        85.9660   39.4510   31.8020 C.3    81  ILE81       0.0252
    100  CG1       86.7800   38.8160   32.9360 C.3    81  ILE81       0.0019
    101  CG2       85.1550   38.4220   31.0240 C.3    81  ILE81       0.0019
    102  CD1       86.0290   37.8260   33.7790 C.3    81  ILE81       0.0001
    103  N         83.6750   43.7660   31.6010 N.3   106  LEU106     -0.1245
    104  CA        83.5470   43.5500   33.0620 C.3   106  LEU106      0.1561
    105  C         84.9290   43.7530   33.6890 C.2   106  LEU106      0.2260
    106  O         85.9280   43.2470   33.1350 O.2   106  LEU106     -0.2867
    107  CB        83.0390   42.1410   33.3460 C.3   106  LEU106      0.0270
    108  CG        81.7530   41.7070   32.6630 C.3   106  LEU106      0.0019
    109  CD1       81.4100   40.2950   33.1120 C.3   106  LEU106      0.0001
    110  CD2       80.6200   42.6590   32.9660 C.3   106  LEU106      0.0001
    111  N         76.1170   38.4440   35.8200 N.3   168  LEU168     -0.1245
    112  CA        77.5220   38.3500   35.3660 C.3   168  LEU168      0.1561
    113  C         78.4450   38.8930   36.4620 C.2   168  LEU168      0.2260
    114  O         79.4190   38.2120   36.8030 O.2   168  LEU168     -0.2867
    115  CB        77.6670   39.1010   34.0480 C.3   168  LEU168      0.0270
    116  CG        76.7470   38.6550   32.9050 C.3   168  LEU168      0.0019
    117  CD1       77.1670   39.3170   31.6070 C.3   168  LEU168      0.0001
    118  CD2       76.7120   37.1480   32.7110 C.3   168  LEU168      0.0001
    119  N         78.6130   36.5450   39.4670 N.3   171  ARG171     -0.1231
    120  CA        79.3370   35.2750   39.1610 C.3   171  ARG171      0.1694
    121  C         80.8330   35.5620   38.9860 C.2   171  ARG171      0.2592
    122  O         81.6400   34.7240   39.3590 O.2   171  ARG171     -0.2718
    123  CB        78.7380   34.6010   37.9260 C.3   171  ARG171      0.0321
    124  CG        77.3690   34.0090   38.2080 C.3   171  ARG171      0.0489
    125  CD        76.5700   33.7030   36.9700 C.3   171  ARG171      0.2205
    126  NE        75.2250   33.3400   37.3910 N.pl3 171  ARG171     -0.0865
    127  CZ        74.8880   32.1530   37.8900 C.cat 171  ARG171      0.5346
    128  NH1       75.8010   31.2020   38.0180 N.pl3 171  ARG171      0.1354
    129  NH2       73.6330   31.9210   38.2550 N.pl3 171  ARG171      0.1354
    130  N         81.1870   36.7170   38.4300 N.am  172  PHE172     -0.1976
    131  CA        82.5930   37.1830   38.3240 C.3   172  PHE172      0.1639
    132  C         83.1920   37.2740   39.7440 C.2   172  PHE172      0.2290
    133  O         84.2860   36.7330   39.9730 O.2   172  PHE172     -0.2864
    134  CB        82.6220   38.4990   37.5500 C.3   172  PHE172      0.0560
    135  CG        83.9780   39.0570   37.1850 C.ar  172  PHE172     -0.0200
    136  CD1       85.1560   38.3720   37.4340 C.ar  172  PHE172     -0.0042
    137  CD2       84.0560   40.2750   36.5220 C.ar  172  PHE172     -0.0042
    138  CE1       86.3800   38.9070   37.0710 C.ar  172  PHE172     -0.0003
    139  CE2       85.2810   40.7960   36.1350 C.ar  172  PHE172     -0.0003
    140  CZ        86.4410   40.1080   36.4100 C.ar  172  PHE172     -0.0000
    141  N         83.4840   33.7080   41.3340 N.3   175  LEU175     -0.1231
    142  CA        84.5690   32.8750   40.7400 C.3   175  LEU175      0.1693
    143  C         85.9280   33.3470   41.2760 C.2   175  LEU175      0.2591
    144  O         86.7730   32.4840   41.5040 O.2   175  LEU175     -0.2718
    145  CB        84.5040   32.9230   39.2090 C.3   175  LEU175      0.0284
    146  CG        83.2970   32.2210   38.5830 C.3   175  LEU175      0.0019
    147  CD1       83.2450   32.4610   37.0850 C.3   175  LEU175      0.0001
    148  CD2       83.2980   30.7350   38.8770 C.3   175  LEU175      0.0001
    149  N         86.1290   34.6530   41.4760 N.am  176  LEU176     -0.1980
    150  CA        87.3650   35.2150   42.0970 C.3   176  LEU176      0.1596
    151  C         87.4850   34.7660   43.5610 C.2   176  LEU176      0.2287
    152  O         88.5990   34.3910   43.9630 O.2   176  LEU176     -0.2864
    153  CB        87.3400   36.7410   41.9950 C.3   176  LEU176      0.0297
    154  CG        87.5190   37.2910   40.5880 C.3   176  LEU176      0.0022
    155  CD1       87.1690   38.7740   40.5190 C.3   176  LEU176      0.0001
    156  CD2       88.9400   37.0520   40.1200 C.3   176  LEU176      0.0001
    157  N         89.1930   31.3220   44.3320 N.3   179  LEU179     -0.1245
    158  CA        90.6780   31.2210   44.2400 C.3   179  LEU179      0.1561
    159  C         91.2610   31.1610   45.6500 C.2   179  LEU179      0.2260
    160  O         90.7720   31.9240   46.5070 O.2   179  LEU179     -0.2867
    161  CB        91.2580   32.4310   43.4980 C.3   179  LEU179      0.0270
    162  CG        91.2870   32.3430   41.9780 C.3   179  LEU179      0.0019
    163  CD1       89.8810   32.1930   41.4400 C.3   179  LEU179      0.0001
    164  CD2       91.9690   33.5650   41.3830 C.3   179  LEU179      0.0001
    165  N         99.4010   35.5170   40.9370 N.3   187  LEU187     -0.1245
    166  CA        98.8660   36.1790   39.7120 C.3   187  LEU187      0.1561
    167  C         99.0880   37.6980   39.7680 C.2   187  LEU187      0.2260
    168  O         99.4140   38.2670   38.7040 O.2   187  LEU187     -0.2867
    169  CB        97.3820   35.8310   39.5650 C.3   187  LEU187      0.0270
    170  CG        97.0910   34.7350   38.5440 C.3   187  LEU187      0.0019
    171  CD1       95.7710   34.0320   38.8490 C.3   187  LEU187      0.0001
    172  CD2       97.1000   35.3270   37.1420 C.3   187  LEU187      0.0001
@<TRIPOS>BOND
     1    57    58    1
     2    61    58    1
     3    61    62    1
     4    64    62   ar
     5    58    59    1
     6    62    63   ar
     7    31    30   ar
     8    30    32   ar
     9    30    29    1
    10    28    29    1
    11    28    25    1
    12    59    60    2
    13    59    65   am
    14    27    26    2
    15    26    25    1
    16    25    24    1
    17    51    52    2
    18    51    50    1
    19    55    53    1
    20    65    66    1
    21    53    50    1
    22    53    54    1
    23    78    77    1
    24    35    36    2
    25    35    34    1
    26    24    19   am
    27    50    49    1
    28    56    54    1
    29    49    43   am
    30    97    98    2
    31    97    96    1
    32    41    42    1
    33    17    18    1
    34    66    67    1
    35    66    69    1
    36    33    34    1
    37    68    67    2
    38    19    20    2
    39    19    18    1
    40    34    37    1
    41    77    79    1
    42    77    74    1
    43    37    38    1
    44    67    73   am
    45    43    44    2
    46    43    42    1
    47    70    69    1
    48    70    72    1
    49    73    74    1
    50    96    95    1
    51    96    99    1
    52    69    71    1
    53    18    21    1
    54    42    45    1
    55   101    99    1
    56    74    75    1
    57    22    21    1
    58   103   104    1
    59   117   116    1
    60    39    38    1
    61    38    40    1
    62    99   100    1
    63    21    23    1
    64    45    46    1
    65    75    80   am
    66    75    76    2
    67   108   110    1
    68   108   109    1
    69   108   107    1
    70   118   116    1
    71   116   115    1
    72   100   102    1
    73   104   107    1
    74   104   105    1
    75   106   105    2
    76    80    81    1
    77    46    47    1
    78    46    48    1
    79     8     6    1
    80   115   112    1
    81    83    82    2
    82     7     6    1
    83     6     5    1
    84    82    81    1
    85    81    84    1
    86    90    91    2
    87    90    89    1
    88   112   111    1
    89   112   113    1
    90    84    85    1
    91     5     2    1
    92     1     2    1
    93     2     3    1
    94   139   140   ar
    95   139   137   ar
    96    93    92    1
    97    89    92    1
    98    89    88    1
    99    85    86    1
   100   140   138   ar
   101   113   114    2
   102   137   135   ar
   103    16    14    1
   104   125   126    1
   105   125   124    1
   106   138   136   ar
   107   147   146    1
   108   172   170    1
   109    92    94    1
   110     4     3    2
   111   135   136   ar
   112   135   134    1
   113   126   127    2
   114     9    10    1
   115   134   131    1
   116    14    15    1
   117    14    13    1
   118    86    87    1
   119   127   128    1
   120   127   129    1
   121   123   124    1
   122   123   120    1
   123    10    13    1
   124    10    11    1
   125   131   130    1
   126   131   132    1
   127   130   121   am
   128   170   171    1
   129   170   169    1
   130   146   148    1
   131   146   145    1
   132   168   167    2
   133    12    11    2
   134   121   120    1
   135   121   122    2
   136   120   119    1
   137   145   142    1
   138   169   166    1
   139   166   167    1
   140   166   165    1
   141   132   133    2
   142   156   154    1
   143   155   154    1
   144   154   153    1
   145   142   143    1
   146   142   141    1
   147   143   149   am
   148   143   144    2
   149   164   162    1
   150   163   162    1
   151   149   150    1
   152   162   161    1
   153   153   150    1
   154   150   151    1
   155   161   158    1
   156   151   152    2
   157   158   157    1
   158   158   159    1
   159   159   160    2
