@<TRIPOS>MOLECULE
tmp/6o4nB00.pdb
 117 113 0 0 0
SMALL
GASTEIGER

@<TRIPOS>ATOM
      1  N        -50.3310   -1.0350  -63.4520 N.3    46  LYS46      -0.1245
      2  CA       -49.3580   -0.0010  -63.7730 C.3    46  LYS46       0.1561
      3  C        -47.9810   -0.2420  -63.1520 C.2    46  LYS46       0.2260
      4  O        -47.1230    0.6460  -63.2290 O.2    46  LYS46      -0.2867
      5  CB       -49.8900    1.3660  -63.3430 C.3    46  LYS46       0.0271
      6  CG       -51.0970    1.8240  -64.1450 C.3    46  LYS46       0.0035
      7  CD       -51.5010    3.2360  -63.7630 C.3    46  LYS46       0.0206
      8  CE       -53.0000    3.3350  -63.5260 C.3    46  LYS46       0.1093
      9  NZ       -53.4310    2.4420  -62.4080 N.3    46  LYS46      -0.1314
     10  N        -57.8870   -0.3540  -58.7610 N.3   286  GLU286     -0.1231
     11  CA       -56.7390    0.5150  -59.0130 C.3   286  GLU286      0.1699
     12  C        -57.0980    1.7470  -59.8400 C.2   286  GLU286      0.2592
     13  O        -56.4100    2.7710  -59.7520 O.2   286  GLU286     -0.2718
     14  CB       -55.6350   -0.2890  -59.7080 C.3   286  GLU286      0.0402
     15  CG       -56.0780   -0.9590  -61.0060 C.3   286  GLU286      0.1161
     16  CD       -55.2790   -2.2170  -61.3200 C.2   286  GLU286      0.3649
     17  OE1      -54.0990   -2.2950  -60.9190 O.co2 286  GLU286     -0.2457
     18  OE2      -55.8320   -3.1320  -61.9640 O.co2 286  GLU286     -0.2457
     19  N        -58.1560    1.6760  -60.6470 N.am  287  GLU287     -0.1966
     20  CA       -58.5280    2.7970  -61.5080 C.3   287  GLU287      0.1733
     21  C        -59.9760    3.2290  -61.3040 C.2   287  GLU287      0.2616
     22  O        -60.5710    3.8390  -62.2010 O.2   287  GLU287     -0.2715
     23  CB       -58.2670    2.4550  -62.9760 C.3   287  GLU287      0.0429
     24  CG       -56.7820    2.4830  -63.3270 C.3   287  GLU287      0.1163
     25  CD       -56.4660    1.8210  -64.6530 C.2   287  GLU287      0.3649
     26  OE1      -55.2970    1.4290  -64.8520 O.co2 287  GLU287     -0.2457
     27  OE2      -57.3810    1.6900  -65.4920 O.co2 287  GLU287     -0.2457
     28  N        -60.5450    2.9480  -60.1350 N.am  288  ASP288     -0.1957
     29  CA       -61.9200    3.3300  -59.8100 C.3   288  ASP288      0.1840
     30  C        -61.8910    4.6920  -59.1220 C.2   288  ASP288      0.2622
     31  O        -61.8970    4.7930  -57.8930 O.2   288  ASP288     -0.2715
     32  CB       -62.5580    2.2590  -58.9320 C.3   288  ASP288      0.1450
     33  CG       -64.0480    2.4670  -58.7320 C.2   288  ASP288      0.3671
     34  OD1      -64.5790    3.5170  -59.1510 O.co2 288  ASP288     -0.2456
     35  OD2      -64.6840    1.5640  -58.1490 O.co2 288  ASP288     -0.2456
     36  N        -61.8660    5.7600  -59.9250 N.am  289  PHE289     -0.1974
     37  CA       -61.7920    7.1040  -59.3560 C.3   289  PHE289      0.1639
     38  C        -63.0110    7.4110  -58.4940 C.2   289  PHE289      0.2290
     39  O        -62.8760    7.8570  -57.3500 O.2   289  PHE289     -0.2864
     40  CB       -61.6530    8.1550  -60.4590 C.3   289  PHE289      0.0560
     41  CG       -61.6990    9.5710  -59.9430 C.ar  289  PHE289     -0.0200
     42  CD1      -60.5530   10.1820  -59.4580 C.ar  289  PHE289     -0.0042
     43  CD2      -62.8910   10.2830  -59.9220 C.ar  289  PHE289     -0.0042
     44  CE1      -60.5930   11.4770  -58.9700 C.ar  289  PHE289     -0.0003
     45  CE2      -62.9350   11.5770  -59.4340 C.ar  289  PHE289     -0.0003
     46  CZ       -61.7840   12.1750  -58.9590 C.ar  289  PHE289     -0.0000
     47  N        -62.8370    5.4830  -55.2140 N.3   292  TRP292     -0.1241
     48  CA       -61.8440    6.0100  -54.2820 C.3   292  TRP292      0.1605
     49  C        -62.2530    7.3760  -53.7420 C.2   292  TRP292      0.2264
     50  O        -62.0730    7.6550  -52.5520 O.2   292  TRP292     -0.2867
     51  CB       -60.4800    6.0890  -54.9590 C.3   292  TRP292      0.0550
     52  CG       -59.7060    4.8120  -54.8720 C.ar  292  TRP292      0.0003
     53  CD1      -59.6380    3.8270  -55.8160 C.ar  292  TRP292      0.0946
     54  CD2      -58.8940    4.3790  -53.7780 C.ar  292  TRP292      0.0152
     55  NE1      -58.8240    2.8100  -55.3780 N.ar  292  TRP292     -0.2442
     56  CE2      -58.3560    3.1230  -54.1290 C.ar  292  TRP292      0.0810
     57  CE3      -58.5660    4.9320  -52.5360 C.ar  292  TRP292      0.0012
     58  CZ2      -57.5040    2.4100  -53.2820 C.ar  292  TRP292      0.0191
     59  CZ3      -57.7200    4.2230  -51.6960 C.ar  292  TRP292      0.0001
     60  CH2      -57.1970    2.9740  -52.0750 C.ar  292  TRP292      0.0015
     61  N        -53.2710    1.5530  -56.3960 N.3   310  LEU310     -0.1231
     62  CA       -53.6910    2.8910  -56.8050 C.3   310  LEU310      0.1693
     63  C        -52.5010    3.7400  -57.2370 C.2   310  LEU310      0.2592
     64  O        -52.5950    4.5100  -58.2010 O.2   310  LEU310     -0.2718
     65  CB       -54.4370    3.5710  -55.6530 C.3   310  LEU310      0.0284
     66  CG       -55.0210    4.9660  -55.8950 C.3   310  LEU310      0.0019
     67  CD1      -56.2190    4.8810  -56.8050 C.3   310  LEU310      0.0001
     68  CD2      -55.4020    5.6260  -54.5750 C.3   310  LEU310      0.0001
     69  N        -51.3690    3.6020  -56.5440 N.am  311  PHE311     -0.1976
     70  CA       -50.2080    4.4640  -56.7320 C.3   311  PHE311      0.1639
     71  C        -48.9950    3.7590  -57.3190 C.2   311  PHE311      0.2290
     72  O        -48.1230    4.4390  -57.8650 O.2   311  PHE311     -0.2864
     73  CB       -49.7790    5.0870  -55.3930 C.3   311  PHE311      0.0560
     74  CG       -50.8010    6.0270  -54.7900 C.ar  311  PHE311     -0.0200
     75  CD1      -51.3460    7.0600  -55.5350 C.ar  311  PHE311     -0.0042
     76  CD2      -51.2000    5.8790  -53.4660 C.ar  311  PHE311     -0.0042
     77  CE1      -52.2790    7.9310  -54.9780 C.ar  311  PHE311     -0.0003
     78  CE2      -52.1330    6.7500  -52.8950 C.ar  311  PHE311     -0.0003
     79  CZ       -52.6730    7.7730  -53.6570 C.ar  311  PHE311     -0.0000
     80  N        -48.0900    9.2220  -60.3440 N.3   317  LEU317     -0.1245
     81  CA       -49.4380    8.8190  -59.9530 C.3   317  LEU317      0.1561
     82  C        -49.7600    9.2960  -58.5440 C.2   317  LEU317      0.2260
     83  O        -50.9060    9.6600  -58.2490 O.2   317  LEU317     -0.2867
     84  CB       -49.5900    7.3020  -60.0520 C.3   317  LEU317      0.0270
     85  CG       -49.5270    6.7000  -61.4550 C.3   317  LEU317      0.0019
     86  CD1      -49.6490    5.1840  -61.3740 C.3   317  LEU317      0.0001
     87  CD2      -50.6090    7.2960  -62.3610 C.3   317  LEU317      0.0001
     88  N        -50.7330   12.9090  -58.7620 N.3   320  GLU320     -0.1231
     89  CA       -52.0610   13.0000  -59.3580 C.3   320  GLU320      0.1699
     90  C        -53.1460   12.6520  -58.3420 C.2   320  GLU320      0.2592
     91  O        -54.1570   13.3540  -58.2290 O.2   320  GLU320     -0.2718
     92  CB       -52.1270   12.0720  -60.5720 C.3   320  GLU320      0.0402
     93  CG       -53.2280   12.3520  -61.5670 C.3   320  GLU320      0.1161
     94  CD       -53.1520   11.4180  -62.7630 C.2   320  GLU320      0.3649
     95  OE1      -53.3990   10.2060  -62.5910 O.co2 320  GLU320     -0.2457
     96  OE2      -52.8240   11.8900  -63.8720 O.co2 320  GLU320     -0.2457
     97  N        -52.9510   11.5630  -57.5950 N.am  321  GLY321     -0.1957
     98  CA       -53.9560   11.1500  -56.6290 C.3   321  GLY321      0.1869
     99  C        -54.0800   12.1120  -55.4640 C.2   321  GLY321      0.2309
    100  O        -55.1880   12.3920  -54.9950 O.2   321  GLY321     -0.2863
    101  N        -56.0890   15.0030  -56.3870 N.3   324  GLN324     -0.1245
    102  CA       -57.5060   14.6790  -56.4840 C.3   324  GLN324      0.1566
    103  C        -58.1280   14.3140  -55.1410 C.2   324  GLN324      0.2260
    104  O        -59.3210   13.9980  -55.0970 O.2   324  GLN324     -0.2867
    105  CB       -57.7200   13.5390  -57.4880 C.3   324  GLN324      0.0367
    106  CG       -57.3580   13.9100  -58.9200 C.3   324  GLN324      0.0905
    107  CD       -58.0940   15.1540  -59.4090 C.2   324  GLN324      0.2608
    108  OE1      -59.2740   15.3570  -59.1080 O.2   324  GLN324     -0.2717
    109  NE2      -57.3940   15.9960  -60.1620 N.am  324  GLN324     -0.0878
    110  N        -57.3810   11.7350  -53.0630 N.3   326  LEU326     -0.1245
    111  CA       -57.5920   10.3000  -52.9300 C.3   326  LEU326      0.1561
    112  C        -56.6710    9.7300  -51.8620 C.2   326  LEU326      0.2260
    113  O        -55.4610    9.9950  -51.8740 O.2   326  LEU326     -0.2867
    114  CB       -57.3420    9.5870  -54.2580 C.3   326  LEU326      0.0270
    115  CG       -58.2000   10.0390  -55.4370 C.3   326  LEU326      0.0019
    116  CD1      -57.9070    9.1780  -56.6620 C.3   326  LEU326      0.0001
    117  CD2      -59.6740    9.9870  -55.0640 C.3   326  LEU326      0.0001
@<TRIPOS>BOND
     1    27    25   ar
     2    26    25   ar
     3    25    24    1
     4     6     7    1
     5     6     5    1
     6    96    94   ar
     7     2     1    1
     8     2     5    1
     9     2     3    1
    10     7     8    1
    11     8     9    1
    12    24    23    1
    13     4     3    2
    14    23    20    1
    15    94    95   ar
    16    94    93    1
    17    87    85    1
    18    22    21    2
    19    18    16   ar
    20    93    92    1
    21    20    21    1
    22    20    19    1
    23    85    86    1
    24    85    84    1
    25    16    15    1
    26    16    17   ar
    27    21    28   am
    28    15    14    1
    29    19    12   am
    30    92    89    1
    31    40    41    1
    32    40    37    1
    33    80    81    1
    34   109   107   am
    35    28    29    1
    36    84    81    1
    37    81    82    1
    38    41    43   ar
    39    41    42   ar
    40    36    37    1
    41    36    30   am
    42    43    45   ar
    43    12    13    2
    44    12    11    1
    45    29    30    1
    46    29    32    1
    47    14    11    1
    48    42    44   ar
    49    45    46   ar
    50   107   108    2
    51   107   106    1
    52    89    88    1
    53    89    90    1
    54    37    38    1
    55    34    33   ar
    56    30    31    2
    57    11    10    1
    58    44    46   ar
    59    32    33    1
    60   106   105    1
    61    33    35   ar
    62    82    83    2
    63    38    39    2
    64    90    91    2
    65    90    97   am
    66    64    63    2
    67    72    71    2
    68    97    98    1
    69   105   102    1
    70    71    70    1
    71    63    62    1
    72    63    69   am
    73    62    61    1
    74    62    65    1
    75    67    66    1
    76    70    69    1
    77    70    73    1
    78   116   115    1
    79    98    99    1
    80   102   101    1
    81   102   103    1
    82    66    65    1
    83    66    68    1
    84    53    55   ar
    85    53    52   ar
    86    75    77   ar
    87    75    74   ar
    88    99   100    2
    89   115   117    1
    90   115   114    1
    91    73    74    1
    92    55    56   ar
    93    47    48    1
    94   103   104    2
    95    77    79   ar
    96    51    52    1
    97    51    48    1
    98    52    54   ar
    99    74    76   ar
   100    48    49    1
   101   114   111    1
   102    56    54   ar
   103    56    58   ar
   104    54    57   ar
   105    49    50    2
   106    79    78   ar
   107    76    78   ar
   108    58    60   ar
   109   110   111    1
   110   111   112    1
   111    57    59   ar
   112    60    59   ar
   113   113   112    2
