@<TRIPOS>MOLECULE
tmp/6o4nB01.pdb
 78 73 0 0 0
SMALL
GASTEIGER

@<TRIPOS>ATOM
      1  N        -27.5050  -13.6690  -60.5430 N.3    10  ARG10      -0.1245
      2  CA       -27.7240  -15.1110  -60.5570 C.3    10  ARG10       0.1563
      3  C        -29.1930  -15.3960  -60.2870 C.2    10  ARG10       0.2260
      4  O        -29.8970  -14.5930  -59.6640 O.2    10  ARG10      -0.2867
      5  CB       -26.8320  -15.8160  -59.5280 C.3    10  ARG10       0.0307
      6  CG       -27.0550  -15.3320  -58.0980 C.3    10  ARG10       0.0489
      7  CD       -26.0900  -15.9990  -57.1070 C.3    10  ARG10       0.2205
      8  NE       -26.2540  -15.4470  -55.7630 N.pl3  10  ARG10      -0.0865
      9  CZ       -26.7910  -16.1040  -54.7360 C.cat  10  ARG10       0.5346
     10  NH1      -27.2040  -17.3530  -54.8840 N.pl3  10  ARG10       0.1354
     11  NH2      -26.9030  -15.5080  -53.5530 N.pl3  10  ARG10       0.1354
     12  N        -32.0820  -17.2210  -58.4390 N.3    12  ILE12      -0.1245
     13  CA       -32.4140  -17.9120  -57.1960 C.3    12  ILE12       0.1561
     14  C        -33.9040  -18.2180  -57.2160 C.2    12  ILE12       0.2260
     15  O        -34.5960  -17.8920  -58.1820 O.2    12  ILE12      -0.2867
     16  CB       -32.0540  -17.0460  -55.9730 C.3    12  ILE12       0.0252
     17  CG1      -32.8330  -15.7310  -56.0230 C.3    12  ILE12       0.0019
     18  CG2      -30.5460  -16.7890  -55.9150 C.3    12  ILE12       0.0019
     19  CD1      -33.2160  -15.2190  -54.6250 C.3    12  ILE12       0.0001
     20  N        -30.7120  -12.4380  -57.7510 N.3    22  CYS22      -0.1235
     21  CA       -29.8900  -11.7250  -56.7870 C.3    22  CYS22       0.1677
     22  C        -28.7250  -11.1080  -57.5360 C.2    22  CYS22       0.2270
     23  O        -28.1450  -11.7070  -58.4510 O.2    22  CYS22      -0.2867
     24  CB       -29.3700  -12.5940  -55.6410 C.3    22  CYS22       0.0956
     25  SG       -30.6310  -13.3180  -54.5850 S.3    22  CYS22      -0.0801
     26  N        -24.9730   -6.9460  -52.0880 N.3    34  GLU34      -0.1231
     27  CA       -25.7770   -7.9650  -52.7460 C.3    34  GLU34       0.1699
     28  C        -27.2320   -7.8130  -52.3300 C.2    34  GLU34       0.2592
     29  O        -27.5200   -7.6060  -51.1510 O.2    34  GLU34      -0.2718
     30  CB       -25.2560   -9.3620  -52.3920 C.3    34  GLU34       0.0402
     31  CG       -25.8440  -10.4630  -53.2250 C.3    34  GLU34       0.1161
     32  CD       -25.0220  -11.7390  -53.1640 C.2    34  GLU34       0.3649
     33  OE1      -25.1510  -12.5720  -54.0840 O.co2  34  GLU34      -0.2457
     34  OE2      -24.2370  -11.8940  -52.2030 O.co2  34  GLU34      -0.2457
     35  N        -28.1460   -7.9080  -53.2970 N.am   35  ALA35      -0.1966
     36  CA       -29.5680   -7.7390  -53.0210 C.3    35  ALA35       0.1728
     37  C        -30.3750   -8.6550  -53.9270 C.2    35  ALA35       0.2616
     38  O        -29.9550   -8.9660  -55.0430 O.2    35  ALA35      -0.2715
     39  CB       -30.0100   -6.2840  -53.2280 C.3    35  ALA35       0.0334
     40  N        -31.5380   -9.0880  -53.4380 N.am   36  CYS36      -0.1968
     41  CA       -32.4380   -9.9320  -54.2090 C.3    36  CYS36       0.1712
     42  C        -33.7530   -9.2000  -54.4510 C.2    36  CYS36       0.2296
     43  O        -34.1430   -8.3070  -53.6910 O.2    36  CYS36      -0.2864
     44  CB       -32.6960  -11.2690  -53.5040 C.3    36  CYS36       0.0983
     45  SG       -31.1500  -12.0920  -53.0130 S.3    36  CYS36      -0.0798
     46  N        -26.1260   -0.9760  -51.2200 N.3   120  LYS120     -0.1245
     47  CA       -25.4460   -1.8040  -50.2310 C.3   120  LYS120      0.1561
     48  C        -23.9370   -1.7800  -50.4310 C.2   120  LYS120      0.2260
     49  O        -23.1790   -1.7420  -49.4520 O.2   120  LYS120     -0.2867
     50  CB       -25.9650   -3.2340  -50.2990 C.3   120  LYS120      0.0271
     51  CG       -27.4190   -3.3300  -49.9360 C.3   120  LYS120      0.0035
     52  CD       -27.8420   -4.7840  -49.9530 C.3   120  LYS120      0.0206
     53  CE       -29.2870   -4.9520  -49.5870 C.3   120  LYS120      0.1093
     54  NZ       -29.6550   -6.4040  -49.6060 N.3   120  LYS120     -0.1314
     55  N        -34.8320  -13.9180  -48.8180 N.3   367  GLU367     -0.1231
     56  CA       -34.0790  -13.6810  -47.5950 C.3   367  GLU367      0.1699
     57  C        -33.4860  -12.2600  -47.5280 C.2   367  GLU367      0.2592
     58  O        -32.8830  -11.9000  -46.5050 O.2   367  GLU367     -0.2718
     59  CB       -32.9940  -14.7730  -47.4680 C.3   367  GLU367      0.0402
     60  CG       -32.0460  -14.9460  -48.6800 C.3   367  GLU367      0.1161
     61  CD       -32.5260  -15.9560  -49.7470 C.2   367  GLU367      0.3649
     62  OE1      -33.7320  -15.9890  -50.0470 O.co2 367  GLU367     -0.2457
     63  OE2      -31.6850  -16.7050  -50.3020 O.co2 367  GLU367     -0.2457
     64  N        -33.6680  -11.4450  -48.5710 N.am  368  ASP368     -0.1960
     65  CA       -33.2500  -10.0410  -48.5560 C.3   368  ASP368      0.1840
     66  C        -34.0470   -9.2500  -47.5190 C.2   368  ASP368      0.2622
     67  O        -35.2590   -9.4190  -47.3920 O.2   368  ASP368     -0.2715
     68  CB       -33.4640   -9.4470  -49.9540 C.3   368  ASP368      0.1450
     69  CG       -32.9730   -8.0140  -50.0890 C.2   368  ASP368      0.3671
     70  OD1      -33.7090   -7.0670  -49.7170 O.co2 368  ASP368     -0.2456
     71  OD2      -31.8520   -7.8400  -50.6110 O.co2 368  ASP368     -0.2456
     72  N        -33.3780   -8.3600  -46.7750 N.am  369  THR369     -0.1951
     73  CA       -34.0720   -7.5980  -45.7360 C.3   369  THR369      0.1897
     74  C        -34.0330   -6.0900  -45.9740 C.2   369  THR369      0.2313
     75  O        -34.2080   -5.3170  -45.0260 O.2   369  THR369     -0.2863
     76  CB       -33.5020   -7.9130  -44.3480 C.3   369  THR369      0.1794
     77  OG1      -32.1470   -7.4550  -44.2700 O.3   369  THR369     -0.2208
     78  CG2      -33.5460   -9.4160  -44.0640 C.3   369  THR369      0.0378
@<TRIPOS>BOND
     1     2     1    1
     2     2     3    1
     3     2     5    1
     4     3     4    2
     5     5     6    1
     6    23    22    2
     7    12    13    1
     8    15    14    2
     9     6     7    1
    10    20    21    1
    11    22    21    1
    12    14    13    1
    13    13    16    1
    14     7     8    1
    15    21    24    1
    16    17    16    1
    17    17    19    1
    18    16    18    1
    19     8     9    2
    20    24    25    1
    21    38    37    2
    22    10     9    1
    23     9    11    1
    24    25    45    1
    25    42    41    1
    26    42    43    2
    27    41    44    1
    28    41    40    1
    29    33    32   ar
    30    37    40   am
    31    37    36    1
    32    44    45    1
    33    35    36    1
    34    35    28   am
    35    39    36    1
    36    31    32    1
    37    31    30    1
    38    32    34   ar
    39    27    30    1
    40    27    28    1
    41    27    26    1
    42    28    29    2
    43    46    47    1
    44    71    69   ar
    45    48    47    1
    46    48    49    2
    47    63    61   ar
    48    50    47    1
    49    50    51    1
    50    69    68    1
    51    69    70   ar
    52    62    61   ar
    53    68    65    1
    54    52    51    1
    55    52    53    1
    56    61    60    1
    57    54    53    1
    58    55    56    1
    59    60    59    1
    60    64    65    1
    61    64    57   am
    62    65    66    1
    63    56    57    1
    64    56    59    1
    65    57    58    2
    66    66    67    2
    67    66    72   am
    68    72    73    1
    69    74    73    1
    70    74    75    2
    71    73    76    1
    72    76    77    1
    73    76    78    1
