@<TRIPOS>MOLECULE
tmp/6pahA00.pdb
 132 130 0 0 0
SMALL
GASTEIGER

@<TRIPOS>ATOM
      1  N        -10.2350   18.4300    5.6270 N.3   132  LEU132     -0.1231
      2  CA       -10.2560   19.8720    5.7720 C.3   132  LEU132      0.1693
      3  C        -11.2200   20.3910    6.8030 C.2   132  LEU132      0.2591
      4  O        -12.4030   20.0890    6.8080 O.2   132  LEU132     -0.2718
      5  CB       -10.4910   20.5470    4.4040 C.3   132  LEU132      0.0284
      6  CG        -9.4570   21.6980    4.4070 C.3   132  LEU132      0.0019
      7  CD1       -8.5200   21.5870    3.1970 C.3   132  LEU132      0.0001
      8  CD2      -10.1560   23.0570    4.5240 C.3   132  LEU132      0.0001
      9  N        -10.6660   21.1660    7.7140 N.am  133  LEU133     -0.1980
     10  CA       -11.4350   21.7550    8.7810 C.3   133  LEU133      0.1596
     11  C        -11.9790   23.0340    8.2560 C.2   133  LEU133      0.2287
     12  O        -11.3660   23.6490    7.4120 O.2   133  LEU133     -0.2864
     13  CB       -10.5310   22.0930    9.9970 C.3   133  LEU133      0.0297
     14  CG       -10.1520   20.9660   10.9710 C.3   133  LEU133      0.0022
     15  CD1       -9.2150   21.4870   12.0600 C.3   133  LEU133      0.0001
     16  CD2      -11.4440   20.3930   11.6130 C.3   133  LEU133      0.0001
     17  N        -12.5720   27.0290    8.3290 N.3   135  SER135     -0.1217
     18  CA       -11.6790   28.0660    8.7910 C.3   135  SER135      0.1889
     19  C        -11.8780   28.3960   10.2490 C.2   135  SER135      0.2288
     20  O        -10.8990   28.5770   11.0240 O.2   135  SER135     -0.2866
     21  CB       -11.8900   29.3170    7.9850 C.3   135  SER135      0.2089
     22  OG       -11.0640   29.2710    6.8710 O.3   135  SER135     -0.2183
     23  N        -10.3520   25.5400   12.3900 N.3   138  PHE138     -0.1241
     24  CA        -8.9350   25.5500   12.2530 C.3   138  PHE138      0.1605
     25  C         -8.3030   26.7160   13.0560 C.2   138  PHE138      0.2264
     26  O         -7.3820   26.4650   13.8550 O.2   138  PHE138     -0.2867
     27  CB        -8.5230   25.6210   10.7760 C.3   138  PHE138      0.0534
     28  CG        -7.0490   25.6920   10.5940 C.ar  138  PHE138     -0.0203
     29  CD1       -6.2690   24.5450   10.7370 C.ar  138  PHE138     -0.0042
     30  CD2       -6.4140   26.9400   10.5140 C.ar  138  PHE138     -0.0042
     31  CE1       -4.8760   24.6270   10.8260 C.ar  138  PHE138     -0.0003
     32  CE2       -5.0320   27.0520   10.6090 C.ar  138  PHE138     -0.0003
     33  CZ        -4.2570   25.8930   10.7720 C.ar  138  PHE138     -0.0000
     34  N         -2.1250   23.1040   16.9950 N.3   147  PHE147     -0.1241
     35  CA        -2.0510   23.1470   15.5320 C.3   147  PHE147      0.1605
     36  C         -2.5430   21.8400   14.8980 C.2   147  PHE147      0.2264
     37  O         -1.9540   20.7910   15.1450 O.2   147  PHE147     -0.2867
     38  CB        -0.6130   23.3700   15.0870 C.3   147  PHE147      0.0534
     39  CG        -0.4640   23.4760   13.5980 C.ar  147  PHE147     -0.0203
     40  CD1       -1.1050   24.5010   12.8970 C.ar  147  PHE147     -0.0042
     41  CD2        0.2730   22.5450   12.8890 C.ar  147  PHE147     -0.0042
     42  CE1       -1.0100   24.5890   11.4920 C.ar  147  PHE147     -0.0003
     43  CE2        0.3740   22.6200   11.4730 C.ar  147  PHE147     -0.0003
     44  CZ        -0.2520   23.6200   10.7870 C.ar  147  PHE147     -0.0000
     45  N         -2.0590   20.4050    1.9210 N.3   165  PRO165     -0.2116
     46  CA        -0.9240   20.2930    2.8480 C.3   165  PRO165      0.1372
     47  C         -0.6640   18.7880    3.0370 C.2   165  PRO165      0.2244
     48  O         -1.5810   17.9890    2.8420 O.2   165  PRO165     -0.2868
     49  CB        -1.4620   20.9570    4.1350 C.3   165  PRO165      0.0268
     50  CG        -2.9470   20.7180    4.0860 C.3   165  PRO165      0.0207
     51  CD        -3.2370   21.0140    2.5850 C.3   165  PRO165      0.0892
     52  N          4.9710   19.5270    4.1280 N.3   169  HIS169     -0.1226
     53  CA         4.6020   20.9250    4.3340 C.3   169  HIS169      0.1752
     54  C          4.4380   21.2820    5.8280 C.2   169  HIS169      0.2595
     55  O          4.9460   22.2980    6.3150 O.2   169  HIS169     -0.2718
     56  CB         3.3040   21.1720    3.5820 C.3   169  HIS169      0.0759
     57  CG         2.6300   22.4570    3.9480 C.ar  169  HIS169      0.0818
     58  ND1        3.0390   23.6760    3.4600 N.ar  169  HIS169     -0.2268
     59  CD2        1.5960   22.7080    4.7880 C.ar  169  HIS169      0.1154
     60  CE1        2.2860   24.6260    3.9890 C.ar  169  HIS169      0.1986
     61  NE2        1.4080   24.0610    4.7980 N.ar  169  HIS169     -0.2212
     62  N          3.7410   20.4440    6.5870 N.am  170  GLU170     -0.1979
     63  CA         3.5890   20.7260    8.0160 C.3   170  GLU170      0.1602
     64  C          4.9570   20.8070    8.7300 C.2   170  GLU170      0.2287
     65  O          5.2200   21.7600    9.4560 O.2   170  GLU170     -0.2864
     66  CB         2.8070   19.6040    8.7400 C.3   170  GLU170      0.0415
     67  CG         1.4650   19.1390    8.1360 C.3   170  GLU170      0.1163
     68  CD         0.3830   20.2250    8.0340 C.2   170  GLU170      0.3649
     69  OE1        0.7110   21.4310    7.9460 O.co2 170  GLU170     -0.2457
     70  OE2       -0.8260   19.8590    8.0090 O.co2 170  GLU170     -0.2457
     71  N          5.5870   24.7300    8.7570 N.3   174  HIS174     -0.1241
     72  CA         5.0320   25.2840    9.9920 C.3   174  HIS174      0.1621
     73  C          5.7730   25.0860   11.2550 C.2   174  HIS174      0.2264
     74  O          5.9800   26.0180   12.0050 O.2   174  HIS174     -0.2867
     75  CB         3.6550   24.6900   10.2690 C.3   174  HIS174      0.0745
     76  CG         2.6150   25.1620    9.3300 C.ar  174  HIS174      0.0817
     77  ND1        2.0380   26.4120    9.4380 N.ar  174  HIS174     -0.2268
     78  CD2        2.0440   24.5650    8.2550 C.ar  174  HIS174      0.1154
     79  CE1        1.1510   26.5700    8.4740 C.ar  174  HIS174      0.1986
     80  NE2        1.1400   25.4640    7.7420 N.ar  174  HIS174     -0.2212
     81  N         -8.9280   34.5000    8.0750 N.3   206  ALA206     -0.1245
     82  CA        -8.3770   33.4500    7.2380 C.3   206  ALA206      0.1562
     83  C         -7.4490   34.0850    6.1790 C.2   206  ALA206      0.2260
     84  O         -6.3740   33.5480    5.8710 O.2   206  ALA206     -0.2867
     85  CB        -9.4940   32.6610    6.5380 C.3   206  ALA206      0.0290
     86  N         -4.2780   35.1840    7.8870 N.3   209  TYR209     -0.1227
     87  CA        -3.4960   33.9740    8.1670 C.3   209  TYR209      0.1736
     88  C         -2.7070   33.5590    6.8920 C.2   209  TYR209      0.2595
     89  O         -1.5100   33.3030    6.9250 O.2   209  TYR209     -0.2718
     90  CB        -4.4450   32.8410    8.6260 C.3   209  TYR209      0.0548
     91  CG        -3.7820   31.4800    8.7900 C.ar  209  TYR209     -0.0200
     92  CD1       -3.5310   30.6860    7.6830 C.ar  209  TYR209     -0.0009
     93  CD2       -3.4260   30.9780   10.0690 C.ar  209  TYR209     -0.0009
     94  CE1       -2.9250   29.4060    7.8300 C.ar  209  TYR209      0.0417
     95  CE2       -2.8320   29.7200   10.2310 C.ar  209  TYR209      0.0417
     96  CZ        -2.5870   28.9520    9.1070 C.ar  209  TYR209      0.1957
     97  OH        -2.0110   27.7170    9.2290 O.3   209  TYR209     -0.2866
     98  N         -3.4070   33.5240    5.7680 N.am  210  TRP210     -0.1976
     99  CA        -2.8080   33.1940    4.4930 C.3   210  TRP210      0.1640
    100  C         -1.6200   34.1050    4.1600 C.2   210  TRP210      0.2290
    101  O         -0.5960   33.5960    3.7130 O.2   210  TRP210     -0.2864
    102  CB        -3.8620   33.2930    3.3750 C.3   210  TRP210      0.0576
    103  CG        -3.3280   32.9650    2.0230 C.ar  210  TRP210      0.0006
    104  CD1       -2.8090   33.8420    1.1010 C.ar  210  TRP210      0.0946
    105  CD2       -3.2820   31.6700    1.4210 C.ar  210  TRP210      0.0152
    106  NE1       -2.4480   33.1550   -0.0490 N.ar  210  TRP210     -0.2442
    107  CE2       -2.7350   31.8210    0.1300 C.ar  210  TRP210      0.0810
    108  CE3       -3.6560   30.3880    1.8510 C.ar  210  TRP210      0.0012
    109  CZ2       -2.5500   30.7260   -0.7520 C.ar  210  TRP210      0.0191
    110  CZ3       -3.4750   29.2950    0.9750 C.ar  210  TRP210      0.0001
    111  CH2       -2.9280   29.4770   -0.3080 C.ar  210  TRP210      0.0015
    112  N          1.0800   31.5460    6.2500 N.3   214  GLU214     -0.1245
    113  CA         1.3550   30.7260    5.0530 C.3   214  GLU214      0.1567
    114  C          2.3110   31.3540    4.0750 C.2   214  GLU214      0.2260
    115  O          3.2340   30.6770    3.5970 O.2   214  GLU214     -0.2867
    116  CB         0.0690   30.3850    4.2670 C.3   214  GLU214      0.0388
    117  CG        -0.7050   29.2350    4.8170 C.3   214  GLU214      0.1160
    118  CD         0.1010   27.9540    4.7640 C.2   214  GLU214      0.3649
    119  OE1        0.7140   27.5840    3.7370 O.co2 214  GLU214     -0.2457
    120  OE2        0.1250   27.2980    5.7630 O.co2 214  GLU214     -0.2457
    121  N         -6.4030   36.4050   -3.3470 N.3   261  TYR261     -0.1241
    122  CA        -5.2320   35.6200   -3.6200 C.3   261  TYR261      0.1605
    123  C         -5.6230   34.3800   -4.4180 C.2   261  TYR261      0.2264
    124  O         -6.7710   33.9690   -4.4040 O.2   261  TYR261     -0.2867
    125  CB        -4.5550   35.2430   -2.3010 C.3   261  TYR261      0.0534
    126  CG        -5.4000   34.4210   -1.3720 C.ar  261  TYR261     -0.0201
    127  CD1       -5.4470   33.0380   -1.4950 C.ar  261  TYR261     -0.0009
    128  CD2       -6.1240   35.0260   -0.3330 C.ar  261  TYR261     -0.0009
    129  CE1       -6.1710   32.2540   -0.6100 C.ar  261  TYR261      0.0417
    130  CE2       -6.8610   34.2570    0.5680 C.ar  261  TYR261      0.0417
    131  CZ        -6.8690   32.8550    0.4180 C.ar  261  TYR261      0.1957
    132  OH        -7.5260   32.0400    1.3070 O.3   261  TYR261     -0.2866
@<TRIPOS>BOND
     1   123   124    2
     2   123   122    1
     3   122   121    1
     4   122   125    1
     5   125   126    1
     6   127   126   ar
     7   127   129   ar
     8   126   128   ar
     9   109   111   ar
    10   109   107   ar
    11   129   131   ar
    12   128   130   ar
    13   111   110   ar
    14   106   107   ar
    15   106   104   ar
    16   107   105   ar
    17   131   130   ar
    18   131   132    1
    19   110   108   ar
    20   104   103   ar
    21   105   108   ar
    22   105   103   ar
    23    45    51    1
    24    45    46    1
    25   103   102    1
    26    51    50    1
    27    48    47    2
    28    46    47    1
    29    46    49    1
    30     7     6    1
    31   102    99    1
    32    58    57   ar
    33    58    60   ar
    34    56    57    1
    35    56    53    1
    36   115   114    2
    37   101   100    2
    38   119   118   ar
    39    57    59   ar
    40    60    61   ar
    41   114   113    1
    42    50    49    1
    43    52    53    1
    44   100    99    1
    45   116   117    1
    46   116   113    1
    47    53    54    1
    48     5     6    1
    49     5     2    1
    50     6     8    1
    51    99    98    1
    52   118   117    1
    53   118   120   ar
    54    59    61   ar
    55   113   112    1
    56     1     2    1
    57    98    88   am
    58     2     3    1
    59    54    55    2
    60    54    62   am
    61    84    83    2
    62    83    82    1
    63    85    82    1
    64    62    63    1
    65     3     4    2
    66     3     9   am
    67    22    21    1
    68    88    89    2
    69    88    87    1
    70    82    81    1
    71    12    11    2
    72    92    94   ar
    73    92    91   ar
    74     9    10    1
    75    80    78   ar
    76    80    79   ar
    77    94    96   ar
    78    86    87    1
    79    69    68   ar
    80    21    18    1
    81    70    68   ar
    82    63    64    1
    83    63    66    1
    84    68    67    1
    85    67    66    1
    86    87    90    1
    87    78    76   ar
    88    11    10    1
    89    17    18    1
    90    79    77   ar
    91    90    91    1
    92    64    65    2
    93    71    72    1
    94    10    13    1
    95    91    93   ar
    96    18    19    1
    97    96    97    1
    98    96    95   ar
    99    76    77   ar
   100    76    75    1
   101    72    75    1
   102    72    73    1
   103    13    14    1
   104    93    95   ar
   105    19    20    2
   106    30    28   ar
   107    30    32   ar
   108    28    29   ar
   109    28    27    1
   110    32    33   ar
   111    29    31   ar
   112    33    31   ar
   113    27    24    1
   114    44    43   ar
   115    44    42   ar
   116    14    16    1
   117    14    15    1
   118    73    74    2
   119    43    41   ar
   120    42    40   ar
   121    24    23    1
   122    24    25    1
   123    41    39   ar
   124    40    39   ar
   125    25    26    2
   126    39    38    1
   127    36    37    2
   128    36    35    1
   129    38    35    1
   130    35    34    1
