@<TRIPOS>MOLECULE
tmp/6prcB07.pdb
 125 119 0 0 0
SMALL
GASTEIGER

@<TRIPOS>ATOM
      1  N        126.4290   64.9710    6.2550 N.3   185  MET185     -0.1230
      2  CA       127.7500   64.7350    5.6590 C.3   185  MET185      0.1702
      3  C        128.1990   65.9210    4.8150 C.2   185  MET185      0.2592
      4  O        129.3490   66.3440    4.8790 O.2   185  MET185     -0.2718
      5  CB       127.7280   63.4960    4.7860 C.3   185  MET185      0.0401
      6  CG       128.7980   63.5100    3.7210 C.3   185  MET185      0.0596
      7  SD       128.4200   62.2790    2.5510 S.3   185  MET185     -0.1393
      8  CE       130.0190   62.0200    1.8030 C.3   185  MET185      0.0692
      9  N        127.2990   66.4150    3.9780 N.am  186  ALA186     -0.1980
     10  CA       127.5940   67.5360    3.1030 C.3   186  ALA186      0.1597
     11  C        128.0350   68.7600    3.8870 C.2   186  ALA186      0.2287
     12  O        128.8480   69.5440    3.4030 O.2   186  ALA186     -0.2864
     13  CB       126.3830   67.8730    2.2720 C.3   186  ALA186      0.0319
     14  N        131.4860   68.2070    4.8240 N.3   189  LEU189     -0.1231
     15  CA       132.3580   68.3850    3.6810 C.3   189  LEU189      0.1693
     16  C        132.5160   69.8470    3.3260 C.2   189  LEU189      0.2592
     17  O        133.6330   70.2690    3.0430 O.2   189  LEU189     -0.2718
     18  CB       131.8220   67.6460    2.4660 C.3   189  LEU189      0.0284
     19  CG       131.8660   66.1290    2.5310 C.3   189  LEU189      0.0019
     20  CD1      131.2060   65.5810    1.2970 C.3   189  LEU189      0.0001
     21  CD2      133.2900   65.6530    2.6430 C.3   189  LEU189      0.0001
     22  N        131.4100   70.5980    3.2360 N.am  190  HIS190     -0.1976
     23  CA       131.4710   72.0070    2.8220 C.3   190  HIS190      0.1656
     24  C        132.2210   72.8350    3.8590 C.2   190  HIS190      0.2291
     25  O        132.9540   73.7630    3.5020 O.2   190  HIS190     -0.2864
     26  CB       130.0850   72.6300    2.6330 C.3   190  HIS190      0.0771
     27  CG       130.1320   74.0980    2.3280 C.ar  190  HIS190      0.0820
     28  ND1      130.9170   74.6460    1.3360 N.ar  190  HIS190     -0.2267
     29  CD2      129.5970   75.1600    2.9960 C.ar  190  HIS190      0.1154
     30  CE1      130.8400   75.9850    1.4300 C.ar  190  HIS190      0.1986
     31  NE2      130.0500   76.3540    2.4260 N.ar  190  HIS190     -0.2212
     32  N        136.0020   71.8980    3.9430 N.3   193  LEU193     -0.1245
     33  CA       136.7770   72.3270    2.7970 C.3   193  LEU193      0.1561
     34  C        137.1070   73.8040    2.8570 C.2   193  LEU193      0.2260
     35  O        138.2220   74.1960    2.5180 O.2   193  LEU193     -0.2867
     36  CB       136.0540   72.0230    1.4860 C.3   193  LEU193      0.0270
     37  CG       136.7560   72.6180    0.2580 C.3   193  LEU193      0.0019
     38  CD1      137.8340   71.6720   -0.2900 C.3   193  LEU193      0.0001
     39  CD2      135.7110   72.9080   -0.7680 C.3   193  LEU193      0.0001
     40  N        139.7370   74.2740   -4.3870 N.3   212  GLU212     -0.1231
     41  CA       138.4820   73.6520   -3.9650 C.3   212  GLU212      0.1699
     42  C        137.9980   72.6980   -5.0520 C.2   212  GLU212      0.2592
     43  O        137.6890   71.5300   -4.7660 O.2   212  GLU212     -0.2718
     44  CB       137.4020   74.7110   -3.7260 C.3   212  GLU212      0.0402
     45  CG       137.6330   75.6610   -2.5370 C.3   212  GLU212      0.1161
     46  CD       136.4960   76.6750   -2.3830 C.2   212  GLU212      0.3649
     47  OE1      135.3070   76.2950   -2.4890 O.co2 212  GLU212     -0.2457
     48  OE2      136.7800   77.8690   -2.1930 O.co2 212  GLU212     -0.2457
     49  N        137.9610   73.1830   -6.2970 N.am  213  ASN213     -0.1974
     50  CA       137.4420   72.3880   -7.4020 C.3   213  ASN213      0.1688
     51  C        138.3280   71.1820   -7.6390 C.2   213  ASN213      0.2292
     52  O        137.8310   70.0580   -7.7410 O.2   213  ASN213     -0.2864
     53  CB       137.3350   73.2200   -8.6760 C.3   213  ASN213      0.1181
     54  CG       136.0600   74.0560   -8.7310 C.2   213  ASN213      0.2629
     55  OD1      135.0480   73.7230   -8.1060 O.2   213  ASN213     -0.2716
     56  ND2      136.0940   75.1290   -9.5090 N.am  213  ASN213     -0.0877
     57  N        137.8560   68.0810   -4.9350 N.3   216  PHE216     -0.1241
     58  CA       136.7260   67.1750   -5.1190 C.3   216  PHE216      0.1605
     59  C        136.7230   66.4180   -6.4440 C.2   216  PHE216      0.2264
     60  O        136.3640   65.2330   -6.4800 O.2   216  PHE216     -0.2867
     61  CB       135.4140   67.9190   -4.9050 C.3   216  PHE216      0.0534
     62  CG       135.0040   67.9620   -3.4680 C.ar  216  PHE216     -0.0203
     63  CD1      134.5170   66.8190   -2.8470 C.ar  216  PHE216     -0.0042
     64  CD2      135.2830   69.0790   -2.6850 C.ar  216  PHE216     -0.0042
     65  CE1      134.3280   66.7840   -1.4830 C.ar  216  PHE216     -0.0003
     66  CE2      135.0880   69.0480   -1.3230 C.ar  216  PHE216     -0.0003
     67  CZ       134.6130   67.8960   -0.7200 C.ar  216  PHE216     -0.0000
     68  N        136.4260   62.5790   -5.5290 N.3   220  VAL220     -0.1245
     69  CA       135.2210   61.8870   -5.9800 C.3   220  VAL220      0.1561
     70  C        134.9380   62.0550   -7.4750 C.2   220  VAL220      0.2260
     71  O        133.9800   61.4990   -7.9850 O.2   220  VAL220     -0.2867
     72  CB       133.9470   62.3180   -5.1610 C.3   220  VAL220      0.0252
     73  CG1      134.1850   62.0920   -3.6850 C.3   220  VAL220      0.0019
     74  CG2      133.5820   63.7710   -5.4110 C.3   220  VAL220      0.0019
     75  N        133.9310   64.6250   -9.0890 N.3   222  TYR222     -0.1227
     76  CA       133.0960   65.7770   -9.4120 C.3   222  TYR222      0.1736
     77  C        133.1710   66.8740   -8.3390 C.2   222  TYR222      0.2596
     78  O        133.0360   66.6010   -7.1420 O.2   222  TYR222     -0.2718
     79  CB       131.6510   65.3190   -9.5960 C.3   222  TYR222      0.0548
     80  CG       130.7250   66.4270  -10.0260 C.ar  222  TYR222     -0.0200
     81  CD1      130.9580   67.1410  -11.2010 C.ar  222  TYR222     -0.0009
     82  CD2      129.6780   66.8360   -9.2140 C.ar  222  TYR222     -0.0009
     83  CE1      130.1730   68.2470  -11.5560 C.ar  222  TYR222      0.0417
     84  CE2      128.8900   67.9460   -9.5560 C.ar  222  TYR222      0.0417
     85  CZ       129.1470   68.6470  -10.7250 C.ar  222  TYR222      0.1957
     86  OH       128.3820   69.7590  -11.0460 O.3   222  TYR222     -0.2866
     87  N        133.3920   68.1160   -8.7550 N.am  223  SER223     -0.1938
     88  CA       133.1630   69.2400   -7.8550 C.3   223  SER223      0.2055
     89  C        131.9680   70.0760   -8.3410 C.2   223  SER223      0.2643
     90  O        131.8720   70.4430   -9.5220 O.2   223  SER223     -0.2714
     91  CB       134.4070   70.1180   -7.7420 C.3   223  SER223      0.2130
     92  OG       134.0590   71.4170   -7.2710 O.3   223  SER223     -0.2179
     93  N        131.0380   70.3430   -7.4330 N.am  224  ILE224     -0.1963
     94  CA       129.8020   70.9870   -7.8090 C.3   224  ILE224      0.1727
     95  C        130.0000   72.4970   -7.9270 C.2   224  ILE224      0.2617
     96  O        129.2000   73.1910   -8.5690 O.2   224  ILE224     -0.2715
     97  CB       128.6730   70.6300   -6.8060 C.3   224  ILE224      0.0290
     98  CG1      127.3210   71.0480   -7.3810 C.3   224  ILE224      0.0022
     99  CG2      128.9400   71.2560   -5.4440 C.3   224  ILE224      0.0023
    100  CD1      126.1540   70.7140   -6.5130 C.3   224  ILE224      0.0001
    101  N        131.1300   72.9850   -7.4230 N.am  225  GLY225     -0.1940
    102  CA       131.4140   74.4060   -7.5280 C.3   225  GLY225      0.2014
    103  C        130.8590   75.2230   -6.3680 C.2   225  GLY225      0.2638
    104  O        129.9580   74.7790   -5.6580 O.2   225  GLY225     -0.2714
    105  N        131.3690   76.4410   -6.2030 N.am  226  ALA226     -0.1977
    106  CA       131.1930   77.1880   -4.9820 C.3   226  ALA226      0.1597
    107  C        129.7750   77.6810   -4.7690 C.2   226  ALA226      0.2287
    108  O        129.2400   77.5120   -3.6880 O.2   226  ALA226     -0.2864
    109  CB       132.1550   78.3290   -4.9440 C.3   226  ALA226      0.0319
    110  N        127.1470   74.3490   -4.1620 N.3   229  ILE229     -0.1245
    111  CA       127.0800   73.5830   -2.9110 C.3   229  ILE229      0.1561
    112  C        126.1670   74.2530   -1.8540 C.2   229  ILE229      0.2260
    113  O        125.4780   73.5730   -1.1000 O.2   229  ILE229     -0.2867
    114  CB       128.4860   73.3170   -2.3250 C.3   229  ILE229      0.0252
    115  CG1      128.3860   72.3030   -1.1900 C.3   229  ILE229      0.0019
    116  CG2      129.1250   74.6060   -1.8330 C.3   229  ILE229      0.0019
    117  CD1      127.8080   70.9830   -1.6140 C.3   229  ILE229      0.0001
    118  N        122.8120   73.1960   -3.1770 N.3   232  LEU232     -0.1245
    119  CA       122.6380   71.8020   -2.8210 C.3   232  LEU232      0.1561
    120  C        122.2370   71.6670   -1.3550 C.2   232  LEU232      0.2260
    121  O        121.2420   71.0170   -1.0300 O.2   232  LEU232     -0.2867
    122  CB       123.9160   71.0240   -3.0860 C.3   232  LEU232      0.0270
    123  CG       123.7760   69.5170   -2.8700 C.3   232  LEU232      0.0019
    124  CD1      122.8550   68.9030   -3.9210 C.3   232  LEU232      0.0001
    125  CD2      125.1530   68.8790   -2.9240 C.3   232  LEU232      0.0001
@<TRIPOS>BOND
     1    83    81   ar
     2    83    85   ar
     3    81    80   ar
     4    86    85    1
     5    85    84   ar
     6    80    79    1
     7    80    82   ar
     8    79    76    1
     9    84    82   ar
    10    90    89    2
    11    56    54   am
    12    76    75    1
    13    76    77    1
    14    87    77   am
    15    87    88    1
    16    54    53    1
    17    54    55    2
    18    53    50    1
    19    96    95    2
    20    89    88    1
    21    89    93   am
    22    77    78    2
    23    71    70    2
    24    95    94    1
    25    95   101   am
    26    88    91    1
    27    94    93    1
    28    94    97    1
    29    91    92    1
    30    52    51    2
    31    51    50    1
    32   102   101    1
    33   102   103    1
    34    70    69    1
    35    50    49    1
    36    98    97    1
    37    98   100    1
    38    97    99    1
    39    60    59    2
    40    59    58    1
    41   103   105   am
    42   103   104    2
    43    49    42   am
    44   105   106    1
    45    69    68    1
    46    69    72    1
    47    74    72    1
    48    72    73    1
    49    58    57    1
    50    58    61    1
    51    42    43    2
    52    42    41    1
    53   106   109    1
    54   106   107    1
    55    61    62    1
    56   107   108    2
    57    40    41    1
    58   110   111    1
    59    41    44    1
    60   124   123    1
    61    44    45    1
    62    62    63   ar
    63    62    64   ar
    64   118   119    1
    65   122   123    1
    66   122   119    1
    67   125   123    1
    68   111   114    1
    69   111   112    1
    70    63    65   ar
    71   119   120    1
    72    64    66   ar
    73    45    46    1
    74    47    46   ar
    75    46    48   ar
    76   114   116    1
    77   114   115    1
    78   112   113    2
    79   117   115    1
    80    65    67   ar
    81   120   121    2
    82    66    67   ar
    83    39    37    1
    84    38    37    1
    85    37    36    1
    86    20    19    1
    87    28    30   ar
    88    28    27   ar
    89    30    31   ar
    90    36    33    1
    91     8     7    1
    92    13    10    1
    93    27    26    1
    94    27    29   ar
    95    31    29   ar
    96    18    19    1
    97    18    15    1
    98    35    34    2
    99    19    21    1
   100     7     6    1
   101    26    23    1
   102    33    34    1
   103    33    32    1
   104    23    22    1
   105    23    24    1
   106    17    16    2
   107    10    11    1
   108    10     9    1
   109    22    16   am
   110    16    15    1
   111    12    11    2
   112    25    24    2
   113    15    14    1
   114     6     5    1
   115     9     3   am
   116     5     2    1
   117     3     4    2
   118     3     2    1
   119     2     1    1
