@<TRIPOS>MOLECULE
tmp/6q3yB00.pdb
 159 158 0 0 0
SMALL
GASTEIGER

@<TRIPOS>ATOM
      1  N         26.5830   29.1530   20.6110 N.3    39  TRP39      -0.1228
      2  CA        26.8660   27.7090   20.4740 C.3    39  TRP39       0.1722
      3  C         25.9050   26.9890   19.5370 C.2    39  TRP39       0.2437
      4  O         26.3640   26.1330   18.7670 O.2    39  TRP39      -0.2733
      5  CB        26.9460   27.0360   21.8400 C.3    39  TRP39       0.0563
      6  CG        25.6950   27.0990   22.6800 C.ar   39  TRP39       0.0003
      7  CD1       25.3300   28.0870   23.5650 C.ar   39  TRP39       0.0946
      8  CD2       24.6400   26.1380   22.6860 C.ar   39  TRP39       0.0152
      9  NE1       24.1190   27.7820   24.1350 N.ar   39  TRP39      -0.2442
     10  CE2       23.6690   26.5950   23.6170 C.ar   39  TRP39       0.0810
     11  CE3       24.4140   24.9410   21.9910 C.ar   39  TRP39       0.0012
     12  CZ2       22.4810   25.8890   23.8420 C.ar   39  TRP39       0.0191
     13  CZ3       23.2500   24.2330   22.2290 C.ar   39  TRP39       0.0001
     14  CH2       22.3110   24.6830   23.1790 C.ar   39  TRP39       0.0015
     15  N         24.5770   27.2950   19.4510 N.am   40  PRO40      -0.2718
     16  CA        23.7500   26.5140   18.5370 C.3    40  PRO40       0.1535
     17  C         24.0540   26.8280   17.0740 C.2    40  PRO40       0.2599
     18  O         23.6200   26.1160   16.2000 O.2    40  PRO40      -0.2715
     19  CB        22.3060   26.9460   18.8630 C.3    40  PRO40       0.0310
     20  CG        22.3890   27.5080   20.2780 C.3    40  PRO40       0.0237
     21  CD        23.7440   28.1850   20.3010 C.3    40  PRO40       0.0939
     22  N         24.7350   27.9380   16.8420 N.am   41  PHE41      -0.1960
     23  CA        24.9300   28.5200   15.5000 C.3    41  PHE41       0.1771
     24  C         26.3720   28.3500   15.0080 C.2    41  PHE41       0.2619
     25  O         26.6860   28.8310   13.8960 O.2    41  PHE41      -0.2715
     26  CB        24.5160   29.9760   15.5110 C.3    41  PHE41       0.0574
     27  CG        23.1000   30.1460   15.9970 C.ar   41  PHE41      -0.0200
     28  CD1       22.0260   29.9220   15.1530 C.ar   41  PHE41      -0.0042
     29  CD2       22.8320   30.5480   17.2910 C.ar   41  PHE41      -0.0042
     30  CE1       20.7220   30.0330   15.5950 C.ar   41  PHE41      -0.0003
     31  CE2       21.5230   30.6610   17.7410 C.ar   41  PHE41      -0.0003
     32  CZ        20.4780   30.4280   16.8970 C.ar   41  PHE41      -0.0000
     33  N         27.2210   27.6420   15.7390 N.am   42  GLN42      -0.1963
     34  CA        28.6590   27.5130   15.3860 C.3    42  GLN42       0.1733
     35  C         28.9310   26.3250   14.4410 C.2    42  GLN42       0.2616
     36  O         30.0780   26.1600   14.0400 O.2    42  GLN42      -0.2715
     37  CB        29.4520   27.3970   16.6770 C.3    42  GLN42       0.0408
     38  CG        29.6280   28.7100   17.4180 C.3    42  GLN42       0.0908
     39  CD        30.2950   28.5470   18.7610 C.2    42  GLN42       0.2608
     40  OE1       30.2830   27.4560   19.3510 O.2    42  GLN42      -0.2717
     41  NE2       30.8130   29.6370   19.2950 N.am   42  GLN42      -0.0878
     42  N         27.9140   25.5820   14.0490 N.am   43  GLN43      -0.1964
     43  CA        28.0460   24.4310   13.1400 C.3    43  GLN43       0.1718
     44  C         26.6920   24.1540   12.5340 C.2    43  GLN43       0.2458
     45  O         25.6600   24.6040   13.0460 O.2    43  GLN43      -0.2730
     46  CB        28.5800   23.2170   13.9200 C.3    43  GLN43       0.0407
     47  CG        27.6150   22.7570   15.0310 C.3    43  GLN43       0.0908
     48  CD        27.5970   23.6950   16.2290 C.2    43  GLN43       0.2608
     49  OE1       28.6390   23.9700   16.8430 O.2    43  GLN43      -0.2717
     50  NE2       26.4180   24.2210   16.5730 N.am   43  GLN43      -0.0878
     51  N         26.6510   23.3680   11.4470 N.am   44  PRO44      -0.2716
     52  CA        25.3740   22.9770   10.8830 C.3    44  PRO44       0.1536
     53  C         24.5060   22.2700   11.9330 C.2    44  PRO44       0.2598
     54  O         25.0080   21.5930   12.8400 O.2    44  PRO44      -0.2715
     55  CB        25.7510   22.0230    9.7410 C.3    44  PRO44       0.0310
     56  CG        27.1460   22.4850    9.3140 C.3    44  PRO44       0.0237
     57  CD        27.7930   22.9150   10.6090 C.3    44  PRO44       0.0939
     58  N         23.2050   22.3930   11.7470 N.am   45  VAL45      -0.1964
     59  CA        22.2400   21.6020   12.5470 C.3    45  VAL45       0.1727
     60  C         22.4220   20.1230   12.2180 C.2    45  VAL45       0.2616
     61  O         22.1810   19.6880   11.0920 O.2    45  VAL45      -0.2715
     62  CB        20.8020   22.0770   12.3130 C.3    45  VAL45       0.0290
     63  CG1       19.7850   21.1550   13.0000 C.3    45  VAL45       0.0023
     64  CG2       20.6240   23.5010   12.7990 C.3    45  VAL45       0.0023
     65  N         22.8100   19.3470   13.2370 N.am   46  ASP46      -0.1971
     66  CA        22.8590   17.8660   13.1380 C.3    46  ASP46       0.1709
     67  C         21.4960   17.3310   13.5710 C.2    46  ASP46       0.2293
     68  O         21.2500   17.1790   14.7890 O.2    46  ASP46      -0.2864
     69  CB        24.0310   17.2890   13.9160 C.3    46  ASP46       0.1436
     70  CG        24.1530   15.7960   13.7480 C.2    46  ASP46       0.3671
     71  OD1       23.1180   15.1790   13.4040 O.co2  46  ASP46      -0.2456
     72  OD2       25.2720   15.2570   13.9460 O.co2  46  ASP46      -0.2456
     73  N         21.4590   13.8400   15.3400 N.3    49  LYS49      -0.1231
     74  CA        21.7640   13.9600   16.8090 C.3    49  LYS49       0.1693
     75  C         20.5810   14.5820   17.5760 C.2    49  LYS49       0.2591
     76  O         20.2680   14.1040   18.7080 O.2    49  LYS49      -0.2718
     77  CB        23.0370   14.7730   17.0850 C.3    49  LYS49       0.0285
     78  CG        24.3370   14.0240   16.8590 C.3    49  LYS49       0.0035
     79  CD        25.6040   14.7630   17.2630 C.3    49  LYS49       0.0206
     80  CE        26.8330   13.8910   17.0630 C.3    49  LYS49       0.1093
     81  NZ        28.1020   14.6430   17.1890 N.3    49  LYS49      -0.1314
     82  N         19.9090   15.5850   17.0130 N.am   50  LEU50      -0.1980
     83  CA        18.8080   16.2870   17.7220 C.3    50  LEU50       0.1596
     84  C         17.4830   15.5370   17.5990 C.2    50  LEU50       0.2287
     85  O         16.4980   16.0170   18.2030 O.2    50  LEU50      -0.2864
     86  CB        18.6700   17.7050   17.1650 C.3    50  LEU50       0.0297
     87  CG        19.8090   18.6390   17.5530 C.3    50  LEU50       0.0022
     88  CD1       19.7870   19.8710   16.6930 C.3    50  LEU50       0.0001
     89  CD2       19.7750   18.9910   19.0310 C.3    50  LEU50       0.0001
     90  N         15.4820   15.3320   15.0130 N.3    52  LEU52      -0.1245
     91  CA        14.5120   16.2150   14.2980 C.3    52  LEU52       0.1561
     92  C         14.4310   15.7930   12.8340 C.2    52  LEU52       0.2260
     93  O         14.9890   16.4470   11.9550 O.2    52  LEU52      -0.2867
     94  CB        14.9260   17.6850   14.4290 C.3    52  LEU52       0.0270
     95  CG        15.0960   18.1820   15.8660 C.3    52  LEU52       0.0019
     96  CD1       15.6510   19.6000   15.8880 C.3    52  LEU52       0.0001
     97  CD2       13.7450   18.0980   16.6150 C.3    52  LEU52       0.0001
     98  N         13.7000   18.5080   10.1640 N.3    55  TYR55      -0.1241
     99  CA        14.4740   19.7840   10.0660 C.3    55  TYR55       0.1605
    100  C         14.7850   20.1190    8.5910 C.2    55  TYR55       0.2264
    101  O         14.5450   21.2480    8.1460 O.2    55  TYR55      -0.2867
    102  CB        15.7610   19.7660   10.8970 C.3    55  TYR55       0.0534
    103  CG        16.4110   21.1330   10.9160 C.ar   55  TYR55      -0.0201
    104  CD1       15.9990   22.1300   11.8110 C.ar   55  TYR55      -0.0009
    105  CD2       17.3690   21.4780    9.9760 C.ar   55  TYR55      -0.0009
    106  CE1       16.5370   23.4000   11.7970 C.ar   55  TYR55       0.0417
    107  CE2       17.9170   22.7410    9.9400 C.ar   55  TYR55       0.0417
    108  CZ        17.5090   23.7090   10.8410 C.ar   55  TYR55       0.1957
    109  OH        18.0520   24.9410   10.7880 O.3    55  TYR55      -0.2866
    110  N         16.2300   29.7970   11.7820 N.3    94  CYS94      -0.1235
    111  CA        15.8670   29.5990   13.1910 C.3    94  CYS94       0.1677
    112  C         14.4180   30.0370   13.4170 C.2    94  CYS94       0.2270
    113  O         13.6530   29.3070   14.0790 O.2    94  CYS94      -0.2867
    114  CB        16.8260   30.3640   14.1040 C.3    94  CYS94       0.0956
    115  SG        16.5950   30.0200   15.8410 S.3    94  CYS94      -0.0801
    116  N         12.0070   27.3900   11.6040 N.3    97  TYR97      -0.1227
    117  CA        11.8440   26.0290   12.1370 C.3    97  TYR97       0.1736
    118  C         11.1220   26.1050   13.4830 C.2    97  TYR97       0.2595
    119  O         10.2990   25.1940   13.8350 O.2    97  TYR97      -0.2718
    120  CB        13.1790   25.3050   12.2730 C.3    97  TYR97       0.0548
    121  CG        12.9750   23.9040   12.7570 C.ar   97  TYR97      -0.0200
    122  CD1       12.5060   22.9330   11.8980 C.ar   97  TYR97      -0.0009
    123  CD2       13.2060   23.5700   14.0780 C.ar   97  TYR97      -0.0009
    124  CE1       12.2580   21.6460   12.3130 C.ar   97  TYR97       0.0417
    125  CE2       12.9350   22.2860   14.5290 C.ar   97  TYR97       0.0417
    126  CZ        12.4320   21.3330   13.6520 C.ar   97  TYR97       0.1957
    127  OH        12.1630   20.0770   14.1290 O.3    97  TYR97      -0.2866
    128  N         11.4960   27.1080   14.2710 N.am   98  ASN98      -0.1974
    129  CA        10.9820   27.2810   15.6450 C.3    98  ASN98       0.1688
    130  C          9.7630   28.2190   15.6230 C.2    98  ASN98       0.2292
    131  O          9.2000   28.4880   14.5600 O.2    98  ASN98      -0.2864
    132  CB        12.1300   27.7300   16.5650 C.3    98  ASN98       0.1181
    133  CG        13.3070   26.7800   16.5370 C.2    98  ASN98       0.2629
    134  OD1       13.2490   25.6930   17.1280 O.2    98  ASN98      -0.2716
    135  ND2       14.3580   27.1370   15.8100 N.am   98  ASN98      -0.0877
    136  N         12.8560   29.9430   23.3460 N.3   103  ASP103     -0.1225
    137  CA        14.1860   30.2860   23.8810 C.3   103  ASP103      0.1805
    138  C         15.1780   30.4420   22.7210 C.2   103  ASP103      0.2597
    139  O         15.9100   31.4260   22.6840 O.2   103  ASP103     -0.2718
    140  CB        14.6610   29.3020   24.9390 C.3   103  ASP103      0.1424
    141  CG        14.7540   27.8440   24.5530 C.2   103  ASP103      0.3668
    142  OD1       14.2480   27.4450   23.4700 O.co2 103  ASP103     -0.2456
    143  OD2       15.3390   27.0920   25.4030 O.co2 103  ASP103     -0.2456
    144  N         15.2380   29.4670   21.8230 N.am  104  ILE104     -0.1980
    145  CA        16.2560   29.4900   20.7340 C.3   104  ILE104      0.1595
    146  C         15.9730   30.6920   19.8080 C.2   104  ILE104      0.2287
    147  O         16.9240   31.2890   19.2370 O.2   104  ILE104     -0.2864
    148  CB        16.3060   28.1410   20.0290 C.3   104  ILE104      0.0276
    149  CG1       17.4310   28.0930   18.9740 C.3   104  ILE104      0.0022
    150  CG2       14.9440   27.7500   19.4370 C.3   104  ILE104      0.0022
    151  CD1       18.8070   28.3310   19.4730 C.3   104  ILE104      0.0001
    152  N         17.2850   33.7180   21.4640 N.3   107  MET107     -0.1245
    153  CA        18.7680   33.6610   21.3300 C.3   107  MET107      0.1570
    154  C         19.1690   34.2070   19.9610 C.2   107  MET107      0.2261
    155  O         20.0380   35.1060   19.8730 O.2   107  MET107     -0.2867
    156  CB        19.2860   32.2440   21.4910 C.3   107  MET107      0.0387
    157  CG        19.1840   31.7420   22.9250 C.3   107  MET107      0.0595
    158  SD        19.5060   29.9810   23.0620 S.3   107  MET107     -0.1393
    159  CE        21.2830   29.9880   22.9370 C.3   107  MET107      0.0692
@<TRIPOS>BOND
     1   101   100    2
     2   100    99    1
     3    56    55    1
     4    56    57    1
     5    55    52    1
     6   107   105   ar
     7   107   108   ar
     8   105   103   ar
     9    99    98    1
    10    99   102    1
    11    57    51    1
    12   109   108    1
    13   108   106   ar
    14    52    51    1
    15    52    53    1
    16   102   103    1
    17   103   104   ar
    18    61    60    2
    19    51    44   am
    20   116   117    1
    21    58    53   am
    22    58    59    1
    23   110   111    1
    24   106   104   ar
    25   122   124   ar
    26   122   121   ar
    27    53    54    2
    28    93    92    2
    29   117   120    1
    30   117   118    1
    31    60    59    1
    32    60    65   am
    33   120   121    1
    34    62    59    1
    35    62    64    1
    36    62    63    1
    37   124   126   ar
    38    44    45    2
    39    44    43    1
    40   121   123   ar
    41    92    91    1
    42    66    65    1
    43    66    67    1
    44    66    69    1
    45    43    46    1
    46    43    42    1
    47   111   112    1
    48   111   114    1
    49    71    70   ar
    50   112   113    2
    51   118   119    2
    52   118   128   am
    53    67    68    2
    54   126   127    1
    55   126   125   ar
    56    70    69    1
    57    70    72   ar
    58    25    24    2
    59    46    47    1
    60    36    35    2
    61    42    35   am
    62   123   125   ar
    63   114   115    1
    64   128   129    1
    65    91    94    1
    66    91    90    1
    67    94    95    1
    68    35    34    1
    69   131   130    2
    70    24    23    1
    71    24    33   am
    72    47    48    1
    73    28    30   ar
    74    28    27   ar
    75    73    74    1
    76    34    33    1
    77    34    37    1
    78    23    26    1
    79    23    22    1
    80    26    27    1
    81    30    32   ar
    82   130   129    1
    83   129   132    1
    84   135   133   am
    85    95    96    1
    86    95    97    1
    87    27    29   ar
    88    18    17    2
    89    48    50   am
    90    48    49    2
    91   133   132    1
    92   133   134    2
    93    37    38    1
    94    88    87    1
    95    74    77    1
    96    74    75    1
    97    22    17   am
    98    78    77    1
    99    78    79    1
   100    32    31   ar
   101    82    75   am
   102    82    83    1
   103    80    81    1
   104    80    79    1
   105    17    16    1
   106    86    87    1
   107    86    83    1
   108    29    31   ar
   109    38    39    1
   110    87    89    1
   111    75    76    2
   112    84    83    1
   113    84    85    2
   114    16    19    1
   115    16    15    1
   116    39    41   am
   117    39    40    2
   118     4     3    2
   119    19    20    1
   120   149   151    1
   121   149   148    1
   122   147   146    2
   123   150   148    1
   124    15     3   am
   125    15    21    1
   126     3     2    1
   127   146   145    1
   128   155   154    2
   129   154   153    1
   130   148   145    1
   131    20    21    1
   132     2     1    1
   133     2     5    1
   134   145   144    1
   135   153   152    1
   136   153   156    1
   137   156   157    1
   138   144   138   am
   139     5     6    1
   140    11    13   ar
   141    11     8   ar
   142    13    14   ar
   143     6     8   ar
   144     6     7   ar
   145   139   138    2
   146     8    10   ar
   147   138   137    1
   148   157   158    1
   149   159   158    1
   150    14    12   ar
   151   136   137    1
   152   142   141   ar
   153     7     9   ar
   154    10    12   ar
   155    10     9   ar
   156   137   140    1
   157   141   140    1
   158   141   143   ar
