@<TRIPOS>MOLECULE
tmp/6q4tA00.pdb
 178 170 0 0 0
SMALL
GASTEIGER

@<TRIPOS>ATOM
      1  N        -49.2700   18.9110  -26.8250 N.3   404  ASP404     -0.1225
      2  CA       -48.3550   19.0210  -25.6960 C.3   404  ASP404      0.1805
      3  C        -48.6560   20.2780  -24.8980 C.2   404  ASP404      0.2598
      4  O        -48.7480   21.3670  -25.4670 O.2   404  ASP404     -0.2718
      5  CB       -46.9060   19.0430  -26.2000 C.3   404  ASP404      0.1424
      6  CG       -45.8950   18.9630  -25.0830 C.2   404  ASP404      0.3668
      7  OD1      -45.8420   19.8910  -24.2520 O.co2 404  ASP404     -0.2456
      8  OD2      -45.1570   17.9600  -25.0450 O.co2 404  ASP404     -0.2456
      9  N        -48.7680   20.1270  -23.5800 N.am  405  PHE405     -0.1962
     10  CA       -49.0700   21.2620  -22.7200 C.3   405  PHE405      0.1771
     11  C        -47.9480   22.2940  -22.7360 C.2   405  PHE405      0.2619
     12  O        -46.7590   21.9590  -22.7360 O.2   405  PHE405     -0.2715
     13  CB       -49.3220   20.7920  -21.2860 C.3   405  PHE405      0.0574
     14  CG       -50.7160   20.2760  -21.0520 C.ar  405  PHE405     -0.0200
     15  CD1      -51.7360   21.1430  -20.6940 C.ar  405  PHE405     -0.0042
     16  CD2      -51.0040   18.9280  -21.1900 C.ar  405  PHE405     -0.0042
     17  CE1      -53.0250   20.6750  -20.4790 C.ar  405  PHE405     -0.0003
     18  CE2      -52.2840   18.4510  -20.9730 C.ar  405  PHE405     -0.0003
     19  CZ       -53.3000   19.3270  -20.6180 C.ar  405  PHE405     -0.0000
     20  N        -48.3480   23.5620  -22.7560 N.am  406  ARG406     -0.1963
     21  CA       -47.4200   24.6760  -22.6380 C.3   406  ARG406      0.1729
     22  C        -46.9130   24.7960  -21.2020 C.2   406  ARG406      0.2617
     23  O        -47.7070   24.9760  -20.2740 O.2   406  ARG406     -0.2715
     24  CB       -48.1200   25.9630  -23.0640 C.3   406  ARG406      0.0348
     25  CG       -47.1720   27.1070  -23.3220 C.3   406  ARG406      0.0492
     26  CD       -47.5190   28.3620  -22.5420 C.3   406  ARG406      0.2205
     27  NE       -48.1210   29.3550  -23.4230 N.pl3 406  ARG406     -0.0865
     28  CZ       -49.4070   29.6980  -23.4260 C.cat 406  ARG406      0.5346
     29  NH1      -49.8350   30.6060  -24.2930 N.pl3 406  ARG406      0.1354
     30  NH2      -50.2680   29.1520  -22.5700 N.pl3 406  ARG406      0.1354
     31  N        -45.5960   24.6980  -21.0240 N.am  407  SER407     -0.1936
     32  CA       -44.9280   24.9070  -19.7350 C.3   407  SER407      0.2055
     33  C        -45.7500   24.3320  -18.5820 C.2   407  SER407      0.2643
     34  O        -46.1820   25.0430  -17.6740 O.2   407  SER407     -0.2714
     35  CB       -44.6550   26.3940  -19.4980 C.3   407  SER407      0.2130
     36  OG       -43.8080   26.9430  -20.4890 O.3   407  SER407     -0.2179
     37  N        -45.9550   23.0130  -18.6230 N.am  408  LEU408     -0.1963
     38  CA       -46.9780   22.4080  -17.7760 C.3   408  LEU408      0.1728
     39  C        -46.7140   22.6650  -16.2940 C.2   408  LEU408      0.2616
     40  O        -47.5240   23.3080  -15.6180 O.2   408  LEU408     -0.2715
     41  CB       -47.0950   20.9070  -18.0360 C.3   408  LEU408      0.0311
     42  CG       -48.1990   20.3030  -17.1540 C.3   408  LEU408      0.0022
     43  CD1      -49.5950   20.7330  -17.6380 C.3   408  LEU408      0.0001
     44  CD2      -48.0910   18.7990  -17.0720 C.3   408  LEU408      0.0001
     45  N        -45.6130   22.1310  -15.7510 N.am  409  TYR409     -0.1974
     46  CA       -45.4300   22.2250  -14.3030 C.3   409  TYR409      0.1639
     47  C        -45.4470   23.6710  -13.8330 C.2   409  TYR409      0.2290
     48  O        -46.1320   23.9670  -12.8390 O.2   409  TYR409     -0.2864
     49  CB       -44.1480   21.5130  -13.8600 C.3   409  TYR409      0.0560
     50  CG       -44.2360   19.9960  -13.8490 C.ar  409  TYR409     -0.0198
     51  CD1      -45.2800   19.3230  -14.4830 C.ar  409  TYR409     -0.0009
     52  CD2      -43.2580   19.2360  -13.2150 C.ar  409  TYR409     -0.0009
     53  CE1      -45.3400   17.9360  -14.4800 C.ar  409  TYR409      0.0417
     54  CE2      -43.3090   17.8590  -13.2120 C.ar  409  TYR409      0.0417
     55  CZ       -44.3510   17.2110  -13.8400 C.ar  409  TYR409      0.1957
     56  OH       -44.3910   15.8330  -13.8200 O.3   409  TYR409     -0.2866
     57  N        -40.7410   33.8340  -22.4690 N.3   460  ARG460     -0.1245
     58  CA       -40.3980   32.6890  -23.3000 C.3   460  ARG460      0.1563
     59  C        -41.2270   32.6540  -24.5800 C.2   460  ARG460      0.2260
     60  O        -40.6890   32.4580  -25.6770 O.2   460  ARG460     -0.2867
     61  CB       -40.5910   31.3840  -22.5280 C.3   460  ARG460      0.0307
     62  CG       -40.1860   30.1950  -23.3790 C.3   460  ARG460      0.0489
     63  CD       -40.4280   28.8600  -22.7470 C.3   460  ARG460      0.2205
     64  NE       -40.3150   27.8440  -23.7850 N.pl3 460  ARG460     -0.0865
     65  CZ       -41.0150   26.7170  -23.8240 C.cat 460  ARG460      0.5346
     66  NH1      -41.8960   26.4380  -22.8740 N.pl3 460  ARG460      0.1354
     67  NH2      -40.8370   25.8700  -24.8300 N.pl3 460  ARG460      0.1354
     68  N        -40.3840   32.5130  -28.5270 N.3   464  LYS464     -0.1245
     69  CA       -40.8120   31.4060  -29.3750 C.3   464  LYS464      0.1561
     70  C        -41.5530   31.9000  -30.6100 C.2   464  LYS464      0.2260
     71  O        -41.3580   31.3690  -31.7090 O.2   464  LYS464     -0.2867
     72  CB       -41.6960   30.4470  -28.5880 C.3   464  LYS464      0.0271
     73  CG       -40.9220   29.3790  -27.8670 C.3   464  LYS464      0.0035
     74  CD       -41.8450   28.3090  -27.3220 C.3   464  LYS464      0.0206
     75  CE       -42.3510   27.4100  -28.4260 C.3   464  LYS464      0.1093
     76  NZ       -42.8800   26.1540  -27.8430 N.3   464  LYS464     -0.1314
     77  N        -35.3600   27.8600  -24.8760 N.3   484  ARG484     -0.1245
     78  CA       -35.1420   26.6120  -24.1540 C.3   484  ARG484      0.1563
     79  C        -34.4940   26.8620  -22.7970 C.2   484  ARG484      0.2260
     80  O        -34.8050   26.1700  -21.8210 O.2   484  ARG484     -0.2867
     81  CB       -34.2880   25.6640  -24.9950 C.3   484  ARG484      0.0307
     82  CG       -35.0870   24.9350  -26.0560 C.3   484  ARG484      0.0489
     83  CD       -34.2720   24.6430  -27.3040 C.3   484  ARG484      0.2205
     84  NE       -33.3310   23.5450  -27.1060 N.pl3 484  ARG484     -0.0865
     85  CZ       -33.4570   22.3230  -27.6220 C.cat 484  ARG484      0.5346
     86  NH1      -32.5270   21.4100  -27.3680 N.pl3 484  ARG484      0.1354
     87  NH2      -34.4920   22.0090  -28.3960 N.pl3 484  ARG484      0.1354
     88  N        -37.2350   27.9140  -20.5440 N.3   487  LYS487     -0.1231
     89  CA       -38.0550   26.7460  -20.2360 C.3   487  LYS487      0.1693
     90  C        -37.4570   25.9300  -19.0960 C.2   487  LYS487      0.2591
     91  O        -38.1550   25.5570  -18.1460 O.2   487  LYS487     -0.2718
     92  CB       -38.2040   25.8780  -21.4830 C.3   487  LYS487      0.0285
     93  CG       -38.6460   24.4490  -21.2020 C.3   487  LYS487      0.0035
     94  CD       -38.9090   23.6970  -22.4920 C.3   487  LYS487      0.0206
     95  CE       -39.0390   22.2090  -22.2430 C.3   487  LYS487      0.1093
     96  NZ       -39.4630   21.4970  -23.4830 N.3   487  LYS487     -0.1314
     97  N        -36.1640   25.6160  -19.1920 N.am  488  ILE488     -0.1980
     98  CA       -35.5320   24.7780  -18.1780 C.3   488  ILE488      0.1595
     99  C        -35.4390   25.5260  -16.8540 C.2   488  ILE488      0.2287
    100  O        -35.7100   24.9620  -15.7870 O.2   488  ILE488     -0.2864
    101  CB       -34.1580   24.2960  -18.6760 C.3   488  ILE488      0.0276
    102  CG1      -34.3480   23.4040  -19.9020 C.3   488  ILE488      0.0022
    103  CG2      -33.4110   23.5280  -17.5780 C.3   488  ILE488      0.0022
    104  CD1      -33.0540   23.0920  -20.6470 C.3   488  ILE488      0.0001
    105  N        -38.8490   25.4140  -15.2460 N.3   491  ASN491     -0.1225
    106  CA       -39.0940   24.0750  -14.7180 C.3   491  ASN491      0.1785
    107  C        -38.2390   23.7890  -13.4920 C.2   491  ASN491      0.2597
    108  O        -38.6040   22.9480  -12.6630 O.2   491  ASN491     -0.2718
    109  CB       -38.8260   23.0280  -15.8010 C.3   491  ASN491      0.1169
    110  CG       -39.9500   22.9390  -16.8100 C.2   491  ASN491      0.2627
    111  OD1      -41.0620   23.3700  -16.5330 O.2   491  ASN491     -0.2716
    112  ND2      -39.6690   22.3720  -17.9820 N.am  491  ASN491     -0.0877
    113  N        -37.0930   24.4600  -13.3670 N.am  492  SER492     -0.1952
    114  CA       -36.2320   24.2460  -12.2130 C.3   492  SER492      0.1924
    115  C        -36.7890   24.8800  -10.9480 C.2   492  SER492      0.2314
    116  O        -36.3380   24.5310   -9.8510 O.2   492  SER492     -0.2863
    117  CB       -34.8330   24.7910  -12.4930 C.3   492  SER492      0.2116
    118  OG       -34.2060   24.0400  -13.5160 O.3   492  SER492     -0.2180
    119  N        -39.9750   24.3600  -10.1530 N.3   494  TYR494     -0.1227
    120  CA       -40.6470   23.1560   -9.6750 C.3   494  TYR494      0.1736
    121  C        -39.6500   22.2150   -9.0040 C.2   494  TYR494      0.2596
    122  O        -39.8780   21.7450   -7.8850 O.2   494  TYR494     -0.2718
    123  CB       -41.3710   22.4320  -10.8190 C.3   494  TYR494      0.0548
    124  CG       -41.3260   20.9350  -10.6110 C.ar  494  TYR494     -0.0200
    125  CD1      -42.0840   20.3340   -9.6180 C.ar  494  TYR494     -0.0009
    126  CD2      -40.4720   20.1310  -11.3590 C.ar  494  TYR494     -0.0009
    127  CE1      -42.0150   18.9740   -9.3920 C.ar  494  TYR494      0.0417
    128  CE2      -40.4010   18.7660  -11.1420 C.ar  494  TYR494      0.0417
    129  CZ       -41.1730   18.1950  -10.1580 C.ar  494  TYR494      0.1957
    130  OH       -41.0980   16.8380   -9.9390 O.3   494  TYR494     -0.2866
    131  N        -38.5340   21.9240   -9.6760 N.am  495  GLY495     -0.1957
    132  CA       -37.5450   21.0250   -9.0960 C.3   495  GLY495      0.1869
    133  C        -36.9390   21.5530   -7.8090 C.2   495  GLY495      0.2309
    134  O        -36.6020   20.7780   -6.9110 O.2   495  GLY495     -0.2863
    135  N        -45.9310   12.3210  -19.7800 N.3   541  THR541     -0.1203
    136  CA       -46.0320   13.4310  -18.8340 C.3   541  THR541      0.1994
    137  C        -47.0710   14.4890  -19.2020 C.2   541  THR541      0.2617
    138  O        -47.9880   14.7380  -18.4110 O.2   541  THR541     -0.2717
    139  CB       -44.6580   14.0820  -18.6490 C.3   541  THR541      0.1784
    140  OG1      -43.7570   13.1030  -18.1240 O.3   541  THR541     -0.2211
    141  CG2      -44.7340   15.2420  -17.6610 C.3   541  THR541      0.0376
    142  N        -46.9480   15.1270  -20.3790 N.am  542  ASP542     -0.1973
    143  CA       -47.8420   16.2350  -20.7100 C.3   542  ASP542      0.1709
    144  C        -48.0710   16.4110  -22.2080 C.2   542  ASP542      0.2293
    145  O        -48.5270   17.4810  -22.6280 O.2   542  ASP542     -0.2864
    146  CB       -47.2910   17.5570  -20.1830 C.3   542  ASP542      0.1436
    147  CG       -46.2170   18.1360  -21.0800 C.2   542  ASP542      0.3671
    148  OD1      -45.4230   17.3530  -21.6420 O.co2 542  ASP542     -0.2456
    149  OD2      -46.1780   19.3730  -21.2290 O.co2 542  ASP542     -0.2456
    150  N        -51.1770   22.5480  -26.6070 N.3   578  GLU578     -0.1245
    151  CA       -50.6380   23.1620  -27.8120 C.3   578  GLU578      0.1567
    152  C        -50.5120   22.1390  -28.9330 C.2   578  GLU578      0.2260
    153  O        -50.3320   20.9410  -28.6930 O.2   578  GLU578     -0.2867
    154  CB       -49.2530   23.7880  -27.5620 C.3   578  GLU578      0.0388
    155  CG       -49.2460   25.0270  -26.6880 C.3   578  GLU578      0.1160
    156  CD       -47.8860   25.7140  -26.6620 C.2   578  GLU578      0.3649
    157  OE1      -46.8850   25.0530  -26.3090 O.co2 578  GLU578     -0.2457
    158  OE2      -47.8170   26.9160  -27.0060 O.co2 578  GLU578     -0.2457
    159  N        -48.1130   20.8300  -31.4880 N.3   580  GLU580     -0.1245
    160  CA       -46.6670   20.8590  -31.6970 C.3   580  GLU580      0.1567
    161  C        -46.2840   20.4560  -33.1150 C.2   580  GLU580      0.2260
    162  O        -45.3820   21.0630  -33.7000 O.2   580  GLU580     -0.2867
    163  CB       -45.9540   19.9580  -30.6830 C.3   580  GLU580      0.0388
    164  CG       -45.9700   20.4910  -29.2510 C.3   580  GLU580      0.1160
    165  CD       -45.0090   21.6500  -29.0330 C.2   580  GLU580      0.3649
    166  OE1      -43.8220   21.5110  -29.3890 O.co2 580  GLU580     -0.2457
    167  OE2      -45.4370   22.7020  -28.5080 O.co2 580  GLU580     -0.2457
    168  N        -35.9350   10.1070  -30.7450 N.3   606  ARG606     -0.1245
    169  CA       -35.8590   10.2740  -29.3010 C.3   606  ARG606      0.1563
    170  C        -35.4120    8.9690  -28.6620 C.2   606  ARG606      0.2260
    171  O        -35.9670    7.9060  -28.9590 O.2   606  ARG606     -0.2867
    172  CB       -37.2130   10.6960  -28.7180 C.3   606  ARG606      0.0307
    173  CG       -37.7340   12.0240  -29.2370 C.3   606  ARG606      0.0489
    174  CD       -36.7130   13.1240  -29.0440 C.3   606  ARG606      0.2205
    175  NE       -37.2670   14.4410  -29.3220 N.pl3 606  ARG606     -0.0865
    176  CZ       -36.5490   15.4930  -29.6960 C.cat 606  ARG606      0.5346
    177  NH1      -37.1510   16.6470  -29.9190 N.pl3 606  ARG606      0.1354
    178  NH2      -35.2370   15.3950  -29.8630 N.pl3 606  ARG606      0.1354
@<TRIPOS>BOND
     1   162   161    2
     2   161   160    1
     3    71    70    2
     4   160   159    1
     5   160   163    1
     6   168   169    1
     7   163   164    1
     8    70    69    1
     9   177   176    1
    10   178   176    1
    11   176   175    2
    12   166   165   ar
    13    69    72    1
    14    69    68    1
    15   175   174    1
    16   169   172    1
    17   169   170    1
    18   164   165    1
    19   173   174    1
    20   173   172    1
    21   165   167   ar
    22   171   170    2
    23   152   153    2
    24   152   151    1
    25    72    73    1
    26    75    76    1
    27    75    74    1
    28    87    85    1
    29    73    74    1
    30   151   154    1
    31   151   150    1
    32    85    86    1
    33    85    84    2
    34   154   155    1
    35    83    84    1
    36    83    82    1
    37   158   156   ar
    38     1     2    1
    39   155   156    1
    40   156   157   ar
    41     5     2    1
    42     5     6    1
    43    82    81    1
    44     2     3    1
    45    60    59    2
    46     4     3    2
    47     6     8   ar
    48     6     7   ar
    49    81    78    1
    50     3     9   am
    51    77    78    1
    52    67    65    1
    53    59    58    1
    54    29    28    1
    55    78    79    1
    56    65    64    2
    57    65    66    1
    58    64    63    1
    59     9    10    1
    60    96    95    1
    61    28    27    2
    62    28    30    1
    63    27    26    1
    64    62    63    1
    65    62    61    1
    66    25    24    1
    67    25    26    1
    68    58    61    1
    69    58    57    1
    70    24    21    1
    71    79    80    2
    72    20    11   am
    73    20    21    1
    74    11    12    2
    75    11    10    1
    76    10    13    1
    77    21    22    1
    78   145   144    2
    79    94    95    1
    80    94    93    1
    81   144   143    1
    82   148   147   ar
    83    92    93    1
    84    92    89    1
    85    13    14    1
    86   149   147   ar
    87    22    31   am
    88    22    23    2
    89    16    14   ar
    90    16    18   ar
    91   147   146    1
    92    14    15   ar
    93    31    32    1
    94    18    19   ar
    95   143   142    1
    96   143   146    1
    97    15    17   ar
    98   104   102    1
    99    19    17   ar
   100    88    89    1
   101    36    35    1
   102   142   137   am
   103    89    90    1
   104   102   101    1
   105   135   136    1
   106    32    35    1
   107    32    33    1
   108   137   136    1
   109   137   138    2
   110    97    90   am
   111    97    98    1
   112    90    91    2
   113   136   139    1
   114   101    98    1
   115   101   103    1
   116   139   140    1
   117   139   141    1
   118    37    33   am
   119    37    38    1
   120    33    34    2
   121    98    99    1
   122    41    38    1
   123    41    42    1
   124   112   110   am
   125    38    39    1
   126    43    42    1
   127    42    44    1
   128    99   100    2
   129   110   111    2
   130   110   109    1
   131    39    45   am
   132    39    40    2
   133   109   106    1
   134    45    46    1
   135   105   106    1
   136   106   107    1
   137    51    53   ar
   138    51    50   ar
   139    53    55   ar
   140    46    49    1
   141    46    47    1
   142    49    50    1
   143    50    52   ar
   144    55    56    1
   145    55    54   ar
   146    47    48    2
   147   118   117    1
   148   107   113   am
   149   107   108    2
   150   113   114    1
   151    52    54   ar
   152   117   114    1
   153   114   115    1
   154   126   128   ar
   155   126   124   ar
   156   128   129   ar
   157   115   116    2
   158   123   124    1
   159   123   120    1
   160   124   125   ar
   161   129   130    1
   162   129   127   ar
   163   119   120    1
   164   131   132    1
   165   131   121   am
   166   120   121    1
   167   125   127   ar
   168   132   133    1
   169   121   122    2
   170   133   134    2
