@<TRIPOS>MOLECULE
tmp/6q4uA00.pdb
 198 191 0 0 0
SMALL
GASTEIGER

@<TRIPOS>ATOM
      1  N         24.2520  -30.3880  -11.2440 N.3   280  ARG280     -0.1245
      2  CA        24.9860  -29.1860  -11.5890 C.3   280  ARG280      0.1563
      3  C         26.4610  -29.5080  -11.8120 C.2   280  ARG280      0.2260
      4  O         26.9830  -30.5280  -11.3500 O.2   280  ARG280     -0.2867
      5  CB        24.8630  -28.1420  -10.4790 C.3   280  ARG280      0.0307
      6  CG        23.6390  -27.2630  -10.5600 C.3   280  ARG280      0.0489
      7  CD        23.7550  -26.1630   -9.5300 C.3   280  ARG280      0.2205
      8  NE        22.7470  -25.1260   -9.6860 N.pl3 280  ARG280     -0.0865
      9  CZ        22.7070  -24.0190   -8.9520 C.cat 280  ARG280      0.5346
     10  NH1       23.6220  -23.8070   -8.0150 N.pl3 280  ARG280      0.1354
     11  NH2       21.7520  -23.1200   -9.1560 N.pl3 280  ARG280      0.1354
     12  N         27.5180   -8.3890   -6.8290 N.3   294  ARG294     -0.1245
     13  CA        26.4900   -7.7330   -6.0250 C.3   294  ARG294      0.1563
     14  C         26.8380   -6.2760   -5.7400 C.2   294  ARG294      0.2260
     15  O         26.0300   -5.3750   -5.9930 O.2   294  ARG294     -0.2867
     16  CB        26.2920   -8.4970   -4.7140 C.3   294  ARG294      0.0307
     17  CG        24.9880   -8.1770   -4.0070 C.3   294  ARG294      0.0489
     18  CD        24.8600   -8.9040   -2.6700 C.3   294  ARG294      0.2205
     19  NE        25.7930   -8.3960   -1.6650 N.pl3 294  ARG294     -0.0865
     20  CZ        26.8040   -9.0820   -1.1330 C.cat 294  ARG294      0.5346
     21  NH1       27.0530  -10.3390   -1.4830 N.pl3 294  ARG294      0.1354
     22  NH2       27.5760   -8.5020   -0.2230 N.pl3 294  ARG294      0.1354
     23  N         21.8110  -15.9020  -20.1540 N.3   317  ASP317     -0.1225
     24  CA        21.3400  -16.3110  -18.8330 C.3   317  ASP317      0.1805
     25  C         19.8460  -16.5920  -18.9130 C.2   317  ASP317      0.2598
     26  O         19.0710  -15.7090  -19.2970 O.2   317  ASP317     -0.2718
     27  CB        21.6350  -15.2160  -17.7980 C.3   317  ASP317      0.1424
     28  CG        21.3400  -15.6500  -16.3720 C.2   317  ASP317      0.3668
     29  OD1       20.2780  -16.2600  -16.1300 O.co2 317  ASP317     -0.2456
     30  OD2       22.1770  -15.3690  -15.4880 O.co2 317  ASP317     -0.2456
     31  N         19.4430  -17.8130  -18.5520 N.am  318  TYR318     -0.1962
     32  CA        18.0310  -18.1730  -18.5920 C.3   318  TYR318      0.1771
     33  C         17.2340  -17.3060  -17.6250 C.2   318  TYR318      0.2620
     34  O         17.7300  -16.8870  -16.5760 O.2   318  TYR318     -0.2715
     35  CB        17.8250  -19.6440  -18.2310 C.3   318  TYR318      0.0574
     36  CG        18.1190  -20.6290  -19.3390 C.ar  318  TYR318     -0.0198
     37  CD1       17.2240  -20.8220  -20.3870 C.ar  318  TYR318     -0.0009
     38  CD2       19.2830  -21.3810  -19.3270 C.ar  318  TYR318     -0.0009
     39  CE1       17.4930  -21.7290  -21.3970 C.ar  318  TYR318      0.0417
     40  CE2       19.5590  -22.2860  -20.3270 C.ar  318  TYR318      0.0417
     41  CZ        18.6630  -22.4570  -21.3600 C.ar  318  TYR318      0.1957
     42  OH        18.9530  -23.3660  -22.3490 O.3   318  TYR318     -0.2866
     43  N         15.9790  -17.0530  -17.9820 N.am  319  SER319     -0.1936
     44  CA        15.0970  -16.2230  -17.1750 C.3   319  SER319      0.2055
     45  C         14.3490  -17.0860  -16.1650 C.2   319  SER319      0.2643
     46  O         13.7130  -18.0770  -16.5400 O.2   319  SER319     -0.2714
     47  CB        14.1090  -15.4770  -18.0720 C.3   319  SER319      0.2130
     48  OG        13.1660  -14.7470  -17.3100 O.3   319  SER319     -0.2179
     49  N         14.4410  -16.7150  -14.8870 N.am  320  GLN320     -0.1963
     50  CA        13.6500  -17.3330  -13.8210 C.3   320  GLN320      0.1733
     51  C         13.6210  -18.8510  -13.9690 C.2   320  GLN320      0.2616
     52  O         12.5700  -19.4900  -13.8910 O.2   320  GLN320     -0.2715
     53  CB        12.2270  -16.7780  -13.8170 C.3   320  GLN320      0.0408
     54  CG        12.1290  -15.2640  -13.9140 C.3   320  GLN320      0.0908
     55  CD        10.6980  -14.7800  -14.0650 C.2   320  GLN320      0.2608
     56  OE1        9.9610  -14.6690  -13.0850 O.2   320  GLN320     -0.2717
     57  NE2       10.2970  -14.4890  -15.3000 N.am  320  GLN320     -0.0878
     58  N         14.8000  -19.4360  -14.1820 N.am  321  ILE321     -0.1963
     59  CA        14.8560  -20.7610  -14.7950 C.3   321  ILE321      0.1727
     60  C         14.1410  -21.7960  -13.9290 C.2   321  ILE321      0.2616
     61  O         13.2590  -22.5200  -14.4080 O.2   321  ILE321     -0.2715
     62  CB        16.3120  -21.1670  -15.0970 C.3   321  ILE321      0.0290
     63  CG1       16.3480  -22.5490  -15.7570 C.3   321  ILE321      0.0022
     64  CG2       17.1660  -21.1760  -13.8450 C.3   321  ILE321      0.0023
     65  CD1       15.5010  -22.6570  -16.9980 C.3   321  ILE321      0.0001
     66  N         14.4940  -21.8860  -12.6420 N.am  322  GLU322     -0.1977
     67  CA        13.9280  -22.9640  -11.8360 C.3   322  GLU322      0.1602
     68  C         12.4370  -22.7580  -11.5820 C.2   322  GLU322      0.2287
     69  O         11.7290  -23.7340  -11.3130 O.2   322  GLU322     -0.2864
     70  CB        14.7130  -23.1270  -10.5220 C.3   322  GLU322      0.0415
     71  CG        16.0430  -23.9020  -10.7320 C.3   322  GLU322      0.1163
     72  CD        16.8490  -24.1710   -9.4630 C.2   322  GLU322      0.3649
     73  OE1       16.2640  -24.2460   -8.3620 O.co2 322  GLU322     -0.2457
     74  OE2       18.0870  -24.3060   -9.5790 O.co2 322  GLU322     -0.2457
     75  N         10.3590  -12.3560   -9.8400 N.3   346  HIS346     -0.1241
     76  CA        11.4080  -11.6870   -9.0770 C.3   346  HIS346      0.1621
     77  C         11.1520  -10.1860   -9.0100 C.2   346  HIS346      0.2264
     78  O         11.2340   -9.5780   -7.9390 O.2   346  HIS346     -0.2867
     79  CB        12.7740  -11.9800   -9.6950 C.3   346  HIS346      0.0745
     80  CG        13.1480  -13.4310   -9.6720 C.ar  346  HIS346      0.0817
     81  ND1       12.5840  -14.3300   -8.7920 N.ar  346  HIS346     -0.2268
     82  CD2       14.0250  -14.1380  -10.4240 C.ar  346  HIS346      0.1154
     83  CE1       13.1040  -15.5270   -8.9990 C.ar  346  HIS346      0.1986
     84  NE2       13.9790  -15.4380   -9.9840 N.ar  346  HIS346     -0.2212
     85  N         15.8920   -6.4900   -7.2980 N.3   366  ARG366     -0.1231
     86  CA        15.4020   -7.7430   -7.8610 C.3   366  ARG366      0.1694
     87  C         16.1800   -8.9360   -7.3190 C.2   366  ARG366      0.2592
     88  O         15.6080  -10.0120   -7.1040 O.2   366  ARG366     -0.2718
     89  CB        15.4870   -7.6800   -9.3850 C.3   366  ARG366      0.0321
     90  CG        14.7580   -8.7920  -10.1050 C.3   366  ARG366      0.0489
     91  CD        14.6860   -8.5310  -11.6010 C.3   366  ARG366      0.2205
     92  NE        14.2510   -9.7210  -12.3220 N.pl3 366  ARG366     -0.0865
     93  CZ        15.0500  -10.7350  -12.6390 C.cat 366  ARG366      0.5346
     94  NH1       16.3330  -10.7050  -12.3040 N.pl3 366  ARG366      0.1354
     95  NH2       14.5650  -11.7820  -13.2910 N.pl3 366  ARG366      0.1354
     96  N         17.4810   -8.7590   -7.0720 N.am  367  ARG367     -0.1966
     97  CA        18.3020   -9.8600   -6.5790 C.3   367  ARG367      0.1729
     98  C         17.8700  -10.3060   -5.1860 C.2   367  ARG367      0.2616
     99  O         17.9710  -11.4940   -4.8570 O.2   367  ARG367     -0.2715
    100  CB        19.7740   -9.4440   -6.5760 C.3   367  ARG367      0.0348
    101  CG        20.7520  -10.6000   -6.4750 C.3   367  ARG367      0.0492
    102  CD        22.1500  -10.1720   -6.8880 C.3   367  ARG367      0.2205
    103  NE        23.0880  -11.2900   -6.8880 N.pl3 367  ARG367     -0.0865
    104  CZ        23.6930  -11.7620   -5.8020 C.cat 367  ARG367      0.5346
    105  NH1       23.4620  -11.2180   -4.6140 N.pl3 367  ARG367      0.1354
    106  NH2       24.5310  -12.7830   -5.9040 N.pl3 367  ARG367      0.1354
    107  N         17.3920   -9.3750   -4.3570 N.am  368  ALA368     -0.1977
    108  CA        16.9100   -9.7410   -3.0310 C.3   368  ALA368      0.1597
    109  C         15.6500  -10.5890   -3.1190 C.2   368  ALA368      0.2287
    110  O         15.4310  -11.4660   -2.2740 O.2   368  ALA368     -0.2864
    111  CB        16.6510   -8.4870   -2.2000 C.3   368  ALA368      0.0319
    112  N         15.0700  -12.9080   -5.1000 N.3   370  LYS370     -0.1231
    113  CA        15.4030  -14.2950   -5.4150 C.3   370  LYS370      0.1693
    114  C         15.5340  -15.1360   -4.1500 C.2   370  LYS370      0.2592
    115  O         14.9700  -16.2330   -4.0620 O.2   370  LYS370     -0.2718
    116  CB        16.6900  -14.3520   -6.2390 C.3   370  LYS370      0.0285
    117  CG        16.5030  -13.9250   -7.6900 C.3   370  LYS370      0.0035
    118  CD        17.8300  -13.7370   -8.4150 C.3   370  LYS370      0.0206
    119  CE        17.6200  -13.4780   -9.9070 C.3   370  LYS370      0.1093
    120  NZ        18.8650  -13.0130  -10.5800 N.3   370  LYS370     -0.1314
    121  N         16.2850  -14.6450   -3.1610 N.am  371  THR371     -0.1953
    122  CA        16.3470  -15.3460   -1.8820 C.3   371  THR371      0.1897
    123  C         14.9460  -15.6300   -1.3610 C.2   371  THR371      0.2313
    124  O         14.6480  -16.7450   -0.9180 O.2   371  THR371     -0.2863
    125  CB        17.1360  -14.5310   -0.8540 C.3   371  THR371      0.1794
    126  OG1       18.3570  -14.0670   -1.4380 O.3   371  THR371     -0.2208
    127  CG2       17.4690  -15.3900    0.3520 C.3   371  THR371      0.0378
    128  N         12.8850  -18.1500   -3.9030 N.3   374  PHE374     -0.1227
    129  CA        13.4160  -19.5060   -3.8380 C.3   374  PHE374      0.1736
    130  C         13.5100  -20.0060   -2.4010 C.2   374  PHE374      0.2596
    131  O         13.4080  -21.2150   -2.1620 O.2   374  PHE374     -0.2718
    132  CB        14.7770  -19.5700   -4.5370 C.3   374  PHE374      0.0547
    133  CG        14.7010  -19.3210   -6.0260 C.ar  374  PHE374     -0.0202
    134  CD1       13.9860  -20.1800   -6.8480 C.ar  374  PHE374     -0.0042
    135  CD2       15.3380  -18.2330   -6.6020 C.ar  374  PHE374     -0.0042
    136  CE1       13.9070  -19.9560   -8.2160 C.ar  374  PHE374     -0.0003
    137  CE2       15.2610  -18.0060   -7.9740 C.ar  374  PHE374     -0.0003
    138  CZ        14.5440  -18.8690   -8.7750 C.ar  374  PHE374     -0.0000
    139  N         13.6800  -19.1040   -1.4370 N.am  375  GLY375     -0.1957
    140  CA        13.6470  -19.4910   -0.0400 C.3   375  GLY375      0.1869
    141  C         12.3090  -20.0900    0.3410 C.2   375  GLY375      0.2309
    142  O         12.2360  -21.2290    0.8140 O.2   375  GLY375     -0.2863
    143  N         11.4940  -23.5500   -1.4020 N.3   378  TYR378     -0.1241
    144  CA        12.2260  -24.7240   -0.9530 C.3   378  TYR378      0.1605
    145  C         12.1480  -24.9400    0.5580 C.2   378  TYR378      0.2264
    146  O         13.0010  -25.6360    1.1170 O.2   378  TYR378     -0.2867
    147  CB        13.6790  -24.6250   -1.4230 C.3   378  TYR378      0.0534
    148  CG        13.7920  -24.7150   -2.9320 C.ar  378  TYR378     -0.0201
    149  CD1       13.1600  -25.7370   -3.6260 C.ar  378  TYR378     -0.0009
    150  CD2       14.4980  -23.7700   -3.6620 C.ar  378  TYR378     -0.0009
    151  CE1       13.2400  -25.8290   -4.9990 C.ar  378  TYR378      0.0417
    152  CE2       14.5850  -23.8530   -5.0440 C.ar  378  TYR378      0.0417
    153  CZ        13.9510  -24.8870   -5.7070 C.ar  378  TYR378      0.1957
    154  OH        14.0200  -24.9910   -7.0800 O.3   378  TYR378     -0.2866
    155  N         13.9870  -30.3490   -3.8650 N.3   457  ASN457     -0.1240
    156  CA        14.7570  -29.3350   -4.5790 C.3   457  ASN457      0.1653
    157  C         15.5000  -29.9410   -5.7630 C.2   457  ASN457      0.2266
    158  O         15.6220  -29.3050   -6.8160 O.2   457  ASN457     -0.2867
    159  CB        15.7440  -28.6480   -3.6380 C.3   457  ASN457      0.1155
    160  CG        16.8350  -27.8890   -4.3840 C.2   457  ASN457      0.2627
    161  OD1       17.8520  -28.4650   -4.7800 O.2   457  ASN457     -0.2716
    162  ND2       16.6280  -26.5930   -4.5780 N.am  457  ASN457     -0.0877
    163  N         16.2700  -28.0750   -9.4690 N.3   461  GLN461     -0.1245
    164  CA        17.6160  -27.6220   -9.7970 C.3   461  GLN461      0.1566
    165  C         18.2650  -28.5420  -10.8240 C.2   461  GLN461      0.2260
    166  O         18.9300  -28.0740  -11.7560 O.2   461  GLN461     -0.2867
    167  CB        18.4670  -27.5440   -8.5270 C.3   461  GLN461      0.0367
    168  CG        19.8540  -26.9530   -8.7410 C.3   461  GLN461      0.0905
    169  CD        20.7110  -27.0080   -7.4920 C.2   461  GLN461      0.2608
    170  OE1       21.7100  -27.7270   -7.4390 O.2   461  GLN461     -0.2717
    171  NE2       20.3270  -26.2440   -6.4770 N.am  461  GLN461     -0.0878
    172  N         26.0070  -22.2800  -14.1600 N.3   491  HIS491     -0.1226
    173  CA        24.7740  -22.9620  -13.7750 C.3   491  HIS491      0.1752
    174  C         23.6470  -22.7570  -14.7810 C.2   491  HIS491      0.2596
    175  O         23.2240  -23.7160  -15.4330 O.2   491  HIS491     -0.2718
    176  CB        24.3600  -22.5150  -12.3730 C.3   491  HIS491      0.0759
    177  CG        25.4570  -22.6660  -11.3680 C.ar  491  HIS491      0.0818
    178  ND1       26.1520  -23.8460  -11.2090 N.ar  491  HIS491     -0.2268
    179  CD2       26.0030  -21.7870  -10.4960 C.ar  491  HIS491      0.1154
    180  CE1       27.0680  -23.6920  -10.2710 C.ar  491  HIS491      0.1986
    181  NE2       26.9980  -22.4520   -9.8200 N.ar  491  HIS491     -0.2212
    182  N         23.1410  -21.5310  -14.9150 N.am  492  ASP492     -0.1974
    183  CA        22.1280  -21.2360  -15.9220 C.3   492  ASP492      0.1709
    184  C         22.5960  -20.1390  -16.8700 C.2   492  ASP492      0.2293
    185  O         21.7730  -19.5030  -17.5360 O.2   492  ASP492     -0.2864
    186  CB        20.7980  -20.8500  -15.2680 C.3   492  ASP492      0.1436
    187  CG        20.7720  -19.4110  -14.7920 C.2   492  ASP492      0.3671
    188  OD1       21.8420  -18.8800  -14.4240 O.co2 492  ASP492     -0.2456
    189  OD2       19.6780  -18.8110  -14.7890 O.co2 492  ASP492     -0.2456
    190  N         18.0310  -14.0490  -21.5590 N.3   527  GLU527     -0.1245
    191  CA        18.5810  -12.7070  -21.6820 C.3   527  GLU527      0.1567
    192  C         20.0130  -12.8150  -22.1890 C.2   527  GLU527      0.2260
    193  O         20.7890  -13.6370  -21.6930 O.2   527  GLU527     -0.2867
    194  CB        18.5400  -11.9700  -20.3420 C.3   527  GLU527      0.0388
    195  CG        17.1340  -11.6870  -19.8240 C.3   527  GLU527      0.1160
    196  CD        16.4350  -10.5800  -20.5900 C.2   527  GLU527      0.3649
    197  OE1       17.0460   -9.5070  -20.7850 O.co2 527  GLU527     -0.2457
    198  OE2       15.2720  -10.7840  -21.0020 O.co2 527  GLU527     -0.2457
@<TRIPOS>BOND
     1    42    41    1
     2   192   193    2
     3   192   191    1
     4   191   190    1
     5   191   194    1
     6    39    41   ar
     7    39    37   ar
     8    41    40   ar
     9   198   196   ar
    10   197   196   ar
    11   196   195    1
    12    37    36   ar
    13   194   195    1
    14    40    38   ar
    15    23    24    1
    16    36    38   ar
    17    36    35    1
    18    26    25    2
    19    25    24    1
    20    25    31   am
    21    24    27    1
    22    32    31    1
    23    32    35    1
    24    32    33    1
    25    47    48    1
    26    47    44    1
    27    43    33   am
    28    43    44    1
    29    27    28    1
    30    33    34    2
    31   185   184    2
    32    44    45    1
    33    65    63    1
    34   184   183    1
    35    46    45    2
    36    28    29   ar
    37    28    30   ar
    38    45    49   am
    39   183   186    1
    40   183   182    1
    41    63    62    1
    42   175   174    2
    43    57    55   am
    44   186   187    1
    45    62    59    1
    46    62    64    1
    47   182   174   am
    48    49    50    1
    49    59    58    1
    50    59    60    1
    51   187   189   ar
    52   187   188   ar
    53   174   173    1
    54    61    60    2
    55    58    51   am
    56   172   173    1
    57    55    54    1
    58    55    56    2
    59    51    52    2
    60    51    50    1
    61    60    66   am
    62    54    53    1
    63    50    53    1
    64   173   176    1
    65    95    93    1
    66    66    67    1
    67    93    92    2
    68    93    94    1
    69   176   177    1
    70    92    91    1
    71    67    68    1
    72    67    70    1
    73     3     2    1
    74     3     4    2
    75   166   165    2
    76    91    90    1
    77     2     1    1
    78     2     5    1
    79    68    69    2
    80   177   178   ar
    81   177   179   ar
    82   178   180   ar
    83   165   164    1
    84    71    70    1
    85    71    72    1
    86   120   119    1
    87     6     5    1
    88     6     7    1
    89   179   181   ar
    90    82    84   ar
    91    82    80   ar
    92   180   181   ar
    93    90    89    1
    94    84    83   ar
    95   119   118    1
    96    75    76    1
    97   164   163    1
    98   164   167    1
    99    79    80    1
   100    79    76    1
   101     8     7    1
   102     8     9    2
   103    80    81   ar
   104    74    72   ar
   105    72    73   ar
   106    89    86    1
   107    11     9    1
   108    76    77    1
   109    77    78    2
   110    83    81   ar
   111     9    10    1
   112   138   136   ar
   113   138   137   ar
   114   168   167    1
   115   168   169    1
   116   118   117    1
   117   136   134   ar
   118   137   135   ar
   119    86    87    1
   120    86    85    1
   121   117   116    1
   122   169   170    2
   123   169   171   am
   124    87    88    2
   125    87    96   am
   126   154   153    1
   127    96    97    1
   128   102   103    1
   129   102   101    1
   130   103   104    2
   131   134   133   ar
   132    12    13    1
   133   158   157    2
   134   135   133   ar
   135    97   100    1
   136    97    98    1
   137   100   101    1
   138   116   113    1
   139   133   132    1
   140    13    14    1
   141    13    16    1
   142    15    14    2
   143   106   104    1
   144   104   105    1
   145   157   156    1
   146   153   152   ar
   147   153   151   ar
   148   113   112    1
   149   113   114    1
   150    98    99    2
   151    98   107   am
   152   152   150   ar
   153   151   149   ar
   154   161   160    2
   155    16    17    1
   156   156   155    1
   157   156   159    1
   158   162   160   am
   159   132   129    1
   160   160   159    1
   161   107   108    1
   162   114   115    2
   163   114   121   am
   164    17    18    1
   165   128   129    1
   166   129   130    1
   167   150   148   ar
   168   149   148   ar
   169   121   122    1
   170   109   108    1
   171   109   110    2
   172   108   111    1
   173   148   147    1
   174    18    19    1
   175   130   131    2
   176   130   139   am
   177   122   123    1
   178   122   125    1
   179    19    20    2
   180    21    20    1
   181   126   125    1
   182   139   140    1
   183   147   144    1
   184   143   144    1
   185   123   124    2
   186    20    22    1
   187   144   145    1
   188   125   127    1
   189   140   141    1
   190   141   142    2
   191   145   146    2
