@<TRIPOS>MOLECULE
tmp/6q6yA00.pdb
 175 164 0 0 0
SMALL
GASTEIGER

@<TRIPOS>ATOM
      1  N         -5.4840  -33.2340   15.2280 N.3   590  MET590     -0.1245
      2  CA        -6.1300  -34.3950   15.8530 C.3   590  MET590      0.1570
      3  C         -6.8770  -35.2430   14.8340 C.2   590  MET590      0.2261
      4  O         -7.4350  -34.7250   13.8650 O.2   590  MET590     -0.2867
      5  CB        -7.0900  -34.0050   16.9970 C.3   590  MET590      0.0387
      6  CG        -6.4630  -33.2050   18.1250 C.3   590  MET590      0.0595
      7  SD        -4.8370  -33.7530   18.7290 S.3   590  MET590     -0.1393
      8  CE        -5.2740  -35.3590   19.4880 C.3   590  MET590      0.0692
      9  N         -9.6740  -36.8380   15.1420 N.3   592  SER592     -0.1217
     10  CA       -11.1260  -36.6630   15.2290 C.3   592  SER592      0.1889
     11  C        -11.7290  -36.0630   13.9470 C.2   592  SER592      0.2288
     12  O        -11.0160  -35.4600   13.1440 O.2   592  SER592     -0.2866
     13  CB       -11.4720  -35.7970   16.4320 C.3   592  SER592      0.2089
     14  OG       -10.6290  -34.6590   16.5050 O.3   592  SER592     -0.2183
     15  N         -9.0810  -30.9200   14.3040 N.3   596  PRO596     -0.2116
     16  CA        -8.6220  -29.6400   14.8650 C.3   596  PRO596      0.1372
     17  C         -7.1070  -29.4640   14.8080 C.2   596  PRO596      0.2244
     18  O         -6.3620  -30.4260   14.9890 O.2   596  PRO596     -0.2868
     19  CB        -9.1410  -29.6680   16.3100 C.3   596  PRO596      0.0268
     20  CG        -9.4750  -31.0700   16.5880 C.3   596  PRO596      0.0207
     21  CD        -9.8420  -31.6940   15.3100 C.3   596  PRO596      0.0892
     22  N         -3.3850  -28.1210   16.0640 N.3   598  TRP598     -0.1241
     23  CA        -2.5770  -27.8900   17.2500 C.3   598  TRP598      0.1605
     24  C         -1.4030  -27.0310   16.8190 C.2   598  TRP598      0.2264
     25  O         -0.5430  -27.5060   16.1230 O.2   598  TRP598     -0.2867
     26  CB        -2.1170  -29.2220   17.8670 C.3   598  TRP598      0.0550
     27  CG        -3.1140  -29.7770   18.8410 C.ar  598  TRP598      0.0003
     28  CD1       -4.4100  -30.1420   18.5810 C.ar  598  TRP598      0.0946
     29  CD2       -2.9110  -29.9780   20.2480 C.ar  598  TRP598      0.0152
     30  NE1       -5.0210  -30.5760   19.7420 N.ar  598  TRP598     -0.2442
     31  CE2       -4.1160  -30.5060   20.7750 C.ar  598  TRP598      0.0810
     32  CE3       -1.8080  -29.8150   21.1060 C.ar  598  TRP598      0.0012
     33  CZ2       -4.2490  -30.8630   22.1250 C.ar  598  TRP598      0.0191
     34  CZ3       -1.9370  -30.1770   22.4360 C.ar  598  TRP598      0.0001
     35  CH2       -3.1560  -30.6510   22.9460 C.ar  598  TRP598      0.0015
     36  N         -5.4410  -24.4390   19.9830 N.3   615  ILE615     -0.1245
     37  CA        -6.1680  -25.4310   19.2100 C.3   615  ILE615      0.1561
     38  C         -7.1510  -24.6570   18.3430 C.2   615  ILE615      0.2260
     39  O         -7.9150  -23.8540   18.8710 O.2   615  ILE615     -0.2867
     40  CB        -6.8730  -26.5080   20.0760 C.3   615  ILE615      0.0252
     41  CG1       -5.8310  -27.3710   20.8440 C.3   615  ILE615      0.0019
     42  CG2       -7.7760  -27.3990   19.2000 C.3   615  ILE615      0.0019
     43  CD1       -6.3660  -27.9810   22.1870 C.3   615  ILE615      0.0001
     44  N        -10.3340  -25.0540   15.9450 N.3   617  LYS617     -0.1245
     45  CA       -11.4270  -25.9790   15.6410 C.3   617  LYS617      0.1561
     46  C        -12.4230  -25.3190   14.6930 C.2   617  LYS617      0.2260
     47  O        -12.8890  -24.2100   14.9560 O.2   617  LYS617     -0.2867
     48  CB       -12.1700  -26.3680   16.9300 C.3   617  LYS617      0.0271
     49  CG       -11.7220  -27.6450   17.5980 C.3   617  LYS617      0.0035
     50  CD       -12.8790  -28.2020   18.4360 C.3   617  LYS617      0.0206
     51  CE       -12.9660  -29.7000   18.4060 C.3   617  LYS617      0.1093
     52  NZ       -11.8440  -30.3180   19.1470 N.3   617  LYS617     -0.1314
     53  N        -18.5320  -24.0970   19.6950 N.3   622  LEU622     -0.1245
     54  CA       -17.8030  -24.0430   20.9760 C.3   622  LEU622      0.1561
     55  C        -18.4450  -23.1850   22.0910 C.2   622  LEU622      0.2260
     56  O        -17.8460  -23.0710   23.1520 O.2   622  LEU622     -0.2867
     57  CB       -16.3290  -23.5800   20.7580 C.3   622  LEU622      0.0270
     58  CG       -15.3980  -24.4710   19.9160 C.3   622  LEU622      0.0019
     59  CD1      -14.0380  -23.8320   19.7650 C.3   622  LEU622      0.0001
     60  CD2      -15.2460  -25.8700   20.5150 C.3   622  LEU622      0.0001
     61  N        -19.1420  -25.1030   25.4590 N.3   625  ASP625     -0.1239
     62  CA       -17.8450  -25.4030   26.0970 C.3   625  ASP625      0.1674
     63  C        -17.4080  -24.1500   26.8200 C.2   625  ASP625      0.2266
     64  O        -17.0800  -24.2070   28.0070 O.2   625  ASP625     -0.2867
     65  CB       -16.7680  -25.7450   25.0430 C.3   625  ASP625      0.1410
     66  CG       -16.6370  -27.2230   24.7640 C.2   625  ASP625      0.3668
     67  OD1      -15.9020  -27.9110   25.5190 O.co2 625  ASP625     -0.2456
     68  OD2      -17.2360  -27.6920   23.7740 O.co2 625  ASP625     -0.2456
     69  N         -8.9880  -23.5040   31.5040 N.3   651  TYR651     -0.1241
     70  CA        -8.3120  -23.1060   30.2500 C.3   651  TYR651      0.1605
     71  C         -9.2630  -22.3070   29.3210 C.2   651  TYR651      0.2264
     72  O        -10.4860  -22.4610   29.4070 O.2   651  TYR651     -0.2867
     73  CB        -7.6570  -24.3320   29.5510 C.3   651  TYR651      0.0534
     74  CG        -8.6730  -25.3770   29.1350 C.ar  651  TYR651     -0.0201
     75  CD1       -9.3820  -25.2540   27.9370 C.ar  651  TYR651     -0.0009
     76  CD2       -9.0150  -26.4280   29.9910 C.ar  651  TYR651     -0.0009
     77  CE1      -10.3770  -26.1640   27.5860 C.ar  651  TYR651      0.0417
     78  CE2      -10.0130  -27.3460   29.6470 C.ar  651  TYR651      0.0417
     79  CZ       -10.7100  -27.1910   28.4560 C.ar  651  TYR651      0.1957
     80  OH       -11.7290  -28.0430   28.1220 O.3   651  TYR651     -0.2866
     81  N         -9.1540  -23.0300   21.4490 N.3   663  ILE663     -0.1231
     82  CA        -9.0340  -23.6550   22.7680 C.3   663  ILE663      0.1692
     83  C         -7.5700  -23.5000   23.1750 C.2   663  ILE663      0.2592
     84  O         -6.6710  -23.6910   22.3550 O.2   663  ILE663     -0.2718
     85  CB        -9.5040  -25.1430   22.7940 C.3   663  ILE663      0.0266
     86  CG1      -11.0130  -25.2670   22.4540 C.3   663  ILE663      0.0019
     87  CG2       -9.2370  -25.7630   24.1520 C.3   663  ILE663      0.0020
     88  CD1      -11.3850  -26.4760   21.7160 C.3   663  ILE663      0.0001
     89  N         -7.3340  -23.1570   24.4350 N.am  664  GLU664     -0.1966
     90  CA        -5.9880  -23.0480   24.9900 C.3   664  GLU664      0.1733
     91  C         -5.3710  -24.4310   25.2300 C.2   664  GLU664      0.2616
     92  O         -6.0250  -25.3310   25.7920 O.2   664  GLU664     -0.2715
     93  CB        -6.0190  -22.2420   26.2690 C.3   664  GLU664      0.0429
     94  CG        -4.7010  -22.2250   27.0230 C.3   664  GLU664      0.1163
     95  CD        -4.7320  -21.4620   28.3330 C.2   664  GLU664      0.3649
     96  OE1       -5.8380  -21.1530   28.8460 O.co2 664  GLU664     -0.2457
     97  OE2       -3.6280  -21.1430   28.8280 O.co2 664  GLU664     -0.2457
     98  N         -4.1300  -24.6050   24.7700 N.am  665  VAL665     -0.1963
     99  CA        -3.4040  -25.8620   24.9890 C.3   665  VAL665      0.1727
    100  C         -2.8380  -25.8170   26.4140 C.2   665  VAL665      0.2616
    101  O         -2.2080  -24.8240   26.7940 O.2   665  VAL665     -0.2715
    102  CB        -2.2630  -26.1010   23.9480 C.3   665  VAL665      0.0290
    103  CG1       -1.2860  -27.1830   24.4070 C.3   665  VAL665      0.0023
    104  CG2       -2.8140  -26.4240   22.5670 C.3   665  VAL665      0.0023
    105  N         -3.0990  -26.8690   27.1910 N.am  666  VAL666     -0.1977
    106  CA        -2.5210  -27.0230   28.5110 C.3   666  VAL666      0.1596
    107  C         -1.3320  -27.9580   28.3010 C.2   666  VAL666      0.2287
    108  O         -1.5040  -29.1520   28.0230 O.2   666  VAL666     -0.2864
    109  CB        -3.5150  -27.5470   29.5830 C.3   666  VAL666      0.0276
    110  CG1       -2.7910  -27.7640   30.9280 C.3   666  VAL666      0.0022
    111  CG2       -4.6850  -26.5730   29.7430 C.3   666  VAL666      0.0022
    112  N          0.4490  -32.3060   29.8220 N.3   669  SER669     -0.1217
    113  CA        -0.7690  -32.9870   30.2200 C.3   669  SER669      0.1889
    114  C         -1.0720  -34.0700   29.2150 C.2   669  SER669      0.2288
    115  O         -0.5670  -34.0240   28.1010 O.2   669  SER669     -0.2866
    116  CB        -1.9350  -31.9990   30.4060 C.3   669  SER669      0.2089
    117  OG        -2.4730  -31.4590   29.2110 O.3   669  SER669     -0.2183
    118  N         -4.3380  -37.3330   28.2620 N.3   671  THR671     -0.1218
    119  CA        -5.6700  -37.8530   28.5800 C.3   671  THR671      0.1862
    120  C         -5.4780  -39.1050   29.4680 C.2   671  THR671      0.2287
    121  O         -4.4310  -39.7690   29.3760 O.2   671  THR671     -0.2866
    122  CB        -6.4490  -38.2550   27.2860 C.3   671  THR671      0.1770
    123  OG1       -5.6960  -39.2300   26.5960 O.3   671  THR671     -0.2211
    124  CG2       -6.7250  -37.0840   26.3340 C.3   671  THR671      0.0375
    125  N        -11.0440  -40.3840   27.5250 N.3   735  ASP735     -0.1225
    126  CA       -10.4370  -39.5190   26.5340 C.3   735  ASP735      0.1805
    127  C        -10.8800  -38.0490   26.6700 C.2   735  ASP735      0.2597
    128  O        -10.3320  -37.2040   25.9740 O.2   735  ASP735     -0.2718
    129  CB       -10.6180  -40.0710   25.1040 C.3   735  ASP735      0.1424
    130  CG       -11.9660  -40.7160   24.8560 C.2   735  ASP735      0.3668
    131  OD1      -12.9500  -39.9660   24.6540 O.co2 735  ASP735     -0.2456
    132  OD2      -12.0360  -41.9810   24.8600 O.co2 735  ASP735     -0.2456
    133  N        -11.8120  -37.7270   27.5830 N.am  736  ASN736     -0.1974
    134  CA       -12.2040  -36.3310   27.8070 C.3   736  ASN736      0.1688
    135  C        -11.8610  -35.8640   29.2220 C.2   736  ASN736      0.2292
    136  O        -12.3910  -34.8510   29.6870 O.2   736  ASN736     -0.2864
    137  CB       -13.6640  -36.0350   27.4300 C.3   736  ASN736      0.1181
    138  CG       -14.6990  -36.8790   28.0950 C.2   736  ASN736      0.2629
    139  OD1      -14.6470  -37.1710   29.2890 O.2   736  ASN736     -0.2716
    140  ND2      -15.7090  -37.2260   27.3370 N.am  736  ASN736     -0.0877
    141  N         -8.3270  -35.1880   31.4630 N.3   738  MET738     -0.1245
    142  CA        -6.9000  -35.0000   31.3460 C.3   738  MET738      0.1570
    143  C         -6.1840  -34.8620   32.6740 C.2   738  MET738      0.2261
    144  O         -6.7900  -34.5340   33.6920 O.2   738  MET738     -0.2867
    145  CB        -6.6240  -33.8220   30.4320 C.3   738  MET738      0.0387
    146  CG        -7.0120  -34.1480   28.9930 C.3   738  MET738      0.0595
    147  SD        -6.3030  -33.0190   27.8200 S.3   738  MET738     -0.1393
    148  CE        -4.7500  -33.7550   27.5810 C.3   738  MET738      0.0692
    149  N         -8.2640  -32.4510   35.0720 N.3   746  PHE746     -0.1241
    150  CA        -9.2590  -31.5050   34.5190 C.3   746  PHE746      0.1605
    151  C        -10.0760  -32.1800   33.4240 C.2   746  PHE746      0.2264
    152  O         -9.6850  -33.2400   32.9240 O.2   746  PHE746     -0.2867
    153  CB        -8.6530  -30.1390   34.0830 C.3   746  PHE746      0.0534
    154  CG        -7.6770  -30.1880   32.9180 C.ar  746  PHE746     -0.0203
    155  CD1       -6.3410  -30.5340   33.1180 C.ar  746  PHE746     -0.0042
    156  CD2       -8.0880  -29.8530   31.6320 C.ar  746  PHE746     -0.0042
    157  CE1       -5.4530  -30.6070   32.0430 C.ar  746  PHE746     -0.0003
    158  CE2       -7.1960  -29.8880   30.5740 C.ar  746  PHE746     -0.0003
    159  CZ        -5.8760  -30.2720   30.7850 C.ar  746  PHE746     -0.0000
    160  N        -12.2980  -31.9850   29.6580 N.3   748  ILE748     -0.1231
    161  CA       -12.3470  -31.3260   28.3530 C.3   748  ILE748      0.1692
    162  C        -13.6030  -31.7750   27.6200 C.2   748  ILE748      0.2592
    163  O        -14.2910  -32.6960   28.0870 O.2   748  ILE748     -0.2718
    164  CB       -11.0640  -31.5310   27.4860 C.3   748  ILE748      0.0266
    165  CG1      -10.9050  -33.0140   27.0330 C.3   748  ILE748      0.0019
    166  CG2       -9.7850  -30.9690   28.1780 C.3   748  ILE748      0.0020
    167  CD1       -9.9130  -33.2270   25.9750 C.3   748  ILE748      0.0001
    168  N        -13.8580  -31.1380   26.4440 N.am  749  ASP749     -0.1974
    169  CA       -14.9310  -31.4260   25.5010 C.3   749  ASP749      0.1709
    170  C        -16.3060  -31.4690   26.1650 C.2   749  ASP749      0.2293
    171  O        -16.8560  -32.5430   26.3820 O.2   749  ASP749     -0.2864
    172  CB       -14.6020  -32.7270   24.7290 C.3   749  ASP749      0.1436
    173  CG       -15.5250  -32.9530   23.5540 C.2   749  ASP749      0.3671
    174  OD1      -15.3030  -32.3170   22.4950 O.co2 749  ASP749     -0.2456
    175  OD2      -16.5060  -33.7220   23.7080 O.co2 749  ASP749     -0.2456
@<TRIPOS>BOND
     1    12    11    2
     2     4     3    2
     3    11    10    1
     4    15    16    1
     5    15    21    1
     6    46    47    2
     7    46    45    1
     8    17    16    1
     9    17    18    2
    10     3     2    1
    11    16    19    1
    12     9    10    1
    13     1     2    1
    14    10    13    1
    15    21    20    1
    16    45    44    1
    17    45    48    1
    18     2     5    1
    19    22    23    1
    20    25    24    2
    21    19    20    1
    22    13    14    1
    23    24    23    1
    24    48    49    1
    25     5     6    1
    26    23    26    1
    27    49    50    1
    28    26    27    1
    29     6     7    1
    30    38    39    2
    31    38    37    1
    32    51    50    1
    33    51    52    1
    34    28    27   ar
    35    28    30   ar
    36     7     8    1
    37    27    29   ar
    38    42    40    1
    39    37    36    1
    40    37    40    1
    41    53    54    1
    42    30    31   ar
    43    59    58    1
    44    58    60    1
    45    58    57    1
    46    40    41    1
    47    29    31   ar
    48    29    32   ar
    49    57    54    1
    50    31    33   ar
    51    41    43    1
    52    54    55    1
    53    32    34   ar
    54    81    82    1
    55    88    86    1
    56    55    56    2
    57    33    35   ar
    58    84    83    2
    59    34    35   ar
    60    86    85    1
    61   174   173   ar
    62   104   102    1
    63    82    85    1
    64    82    83    1
    65    85    87    1
    66    83    89   am
    67   173   175   ar
    68   173   172    1
    69    68    66   ar
    70   102   103    1
    71   102    99    1
    72    89    90    1
    73   131   130   ar
    74   172   169    1
    75    66    65    1
    76    66    67   ar
    77    98    99    1
    78    98    91   am
    79   130   132   ar
    80   130   129    1
    81    99   100    1
    82    90    91    1
    83    90    93    1
    84    65    62    1
    85   129   126    1
    86    91    92    2
    87    61    62    1
    88   169   170    1
    89   169   168    1
    90   128   127    2
    91   167   165    1
    92    62    63    1
    93   170   171    2
    94    93    94    1
    95   124   122    1
    96   100   101    2
    97   100   105   am
    98   168   162   am
    99   126   127    1
   100   126   125    1
   101   123   122    1
   102   127   133   am
   103    63    64    2
   104    94    95    1
   105   165   164    1
   106   105   106    1
   107   122   119    1
   108   140   138   am
   109   137   134    1
   110   137   138    1
   111   164   166    1
   112   164   161    1
   113   148   147    1
   114   133   134    1
   115    77    75   ar
   116    77    79   ar
   117   162   163    2
   118   162   161    1
   119   134   135    1
   120   147   146    1
   121    75    74   ar
   122   108   107    2
   123   138   139    2
   124   115   114    2
   125    80    79    1
   126   118   119    1
   127   107   106    1
   128    95    97   ar
   129    95    96   ar
   130   161   160    1
   131    79    78   ar
   132   106   109    1
   133   119   120    1
   134   146   145    1
   135    74    73    1
   136    74    76   ar
   137   117   116    1
   138   114   113    1
   139   135   136    2
   140    71    72    2
   141    71    70    1
   142   121   120    2
   143    73    70    1
   144   109   111    1
   145   109   110    1
   146    78    76   ar
   147   112   113    1
   148   113   116    1
   149    70    69    1
   150   145   142    1
   151   158   159   ar
   152   158   156   ar
   153   159   157   ar
   154   142   141    1
   155   142   143    1
   156   156   154   ar
   157   157   155   ar
   158   143   144    2
   159   154   155   ar
   160   154   153    1
   161   152   151    2
   162   151   150    1
   163   153   150    1
   164   150   149    1
