@<TRIPOS>MOLECULE
tmp/6q73A00.pdb
 160 150 0 0 0
SMALL
GASTEIGER

@<TRIPOS>ATOM
      1  N         -5.8730  -33.3320   15.1090 N.3   591  MET591     -0.1245
      2  CA        -6.5040  -34.5570   15.6360 C.3   591  MET591      0.1570
      3  C         -7.1290  -35.4040   14.5330 C.2   591  MET591      0.2261
      4  O         -7.5310  -34.8900   13.4860 O.2   591  MET591     -0.2867
      5  CB        -7.5620  -34.2610   16.7220 C.3   591  MET591      0.0387
      6  CG        -7.0710  -33.4190   17.8740 C.3   591  MET591      0.0595
      7  SD        -5.6080  -34.0870   18.6680 S.3   591  MET591     -0.1393
      8  CE        -6.3070  -35.5390   19.4760 C.3   591  MET591      0.0692
      9  N        -10.0130  -36.9260   14.6110 N.3   593  SER593     -0.1217
     10  CA       -11.4690  -36.7900   14.6400 C.3   593  SER593      0.1889
     11  C        -12.0230  -36.1160   13.3580 C.2   593  SER593      0.2288
     12  O        -11.2740  -35.5030   12.5970 O.2   593  SER593     -0.2866
     13  CB       -11.8860  -36.0130   15.8820 C.3   593  SER593      0.2089
     14  OG       -11.4360  -34.6700   15.8080 O.3   593  SER593     -0.2183
     15  N         -9.3220  -30.9780   14.2160 N.3   597  PRO597     -0.2116
     16  CA        -8.8910  -29.7320   14.8710 C.3   597  PRO597      0.1372
     17  C         -7.3800  -29.5390   14.8640 C.2   597  PRO597      0.2244
     18  O         -6.6510  -30.5060   15.0730 O.2   597  PRO597     -0.2868
     19  CB        -9.4620  -29.8590   16.2920 C.3   597  PRO597      0.0268
     20  CG        -9.7470  -31.2780   16.4690 C.3   597  PRO597      0.0207
     21  CD       -10.1150  -31.8070   15.1460 C.3   597  PRO597      0.0892
     22  N         -3.6350  -28.0910   16.0690 N.3   599  TRP599     -0.1241
     23  CA        -2.8870  -27.7900   17.2830 C.3   599  TRP599      0.1605
     24  C         -1.6870  -26.9780   16.8480 C.2   599  TRP599      0.2264
     25  O         -0.7920  -27.4980   16.1930 O.2   599  TRP599     -0.2867
     26  CB        -2.4760  -29.0790   18.0010 C.3   599  TRP599      0.0550
     27  CG        -3.5750  -29.6820   18.8160 C.ar  599  TRP599      0.0003
     28  CD1       -4.8300  -30.0210   18.3920 C.ar  599  TRP599      0.0946
     29  CD2       -3.4630  -30.1520   20.1570 C.ar  599  TRP599      0.0152
     30  NE1       -5.5370  -30.6000   19.4170 N.ar  599  TRP599     -0.2442
     31  CE2       -4.7110  -30.7240   20.5070 C.ar  599  TRP599      0.0810
     32  CE3       -2.4120  -30.1790   21.0940 C.ar  599  TRP599      0.0012
     33  CZ2       -4.9540  -31.2770   21.7720 C.ar  599  TRP599      0.0191
     34  CZ3       -2.6520  -30.7260   22.3460 C.ar  599  TRP599      0.0001
     35  CH2       -3.9140  -31.2680   22.6740 C.ar  599  TRP599      0.0015
     36  N         -5.7000  -24.3790   19.8590 N.3   616  ILE616     -0.1245
     37  CA        -6.3700  -25.4040   19.0840 C.3   616  ILE616      0.1561
     38  C         -7.3770  -24.6590   18.2410 C.2   616  ILE616      0.2260
     39  O         -8.1860  -23.9230   18.7820 O.2   616  ILE616     -0.2867
     40  CB        -7.0300  -26.5270   19.9660 C.3   616  ILE616      0.0252
     41  CG1       -5.9920  -27.2640   20.8520 C.3   616  ILE616      0.0019
     42  CG2       -7.8750  -27.5210   19.1130 C.3   616  ILE616      0.0019
     43  CD1       -6.5730  -27.8790   22.1940 C.3   616  ILE616      0.0001
     44  N        -10.5390  -24.9500   15.8670 N.3   618  LYS618     -0.1245
     45  CA       -11.6600  -25.8320   15.5760 C.3   618  LYS618      0.1561
     46  C        -12.6260  -25.1730   14.5960 C.2   618  LYS618      0.2260
     47  O        -13.0660  -24.0550   14.8100 O.2   618  LYS618     -0.2867
     48  CB       -12.3990  -26.2470   16.8640 C.3   618  LYS618      0.0271
     49  CG       -11.7630  -27.4370   17.5630 C.3   618  LYS618      0.0035
     50  CD       -12.5770  -27.8700   18.7450 C.3   618  LYS618      0.0206
     51  CE       -12.8660  -29.3330   18.7490 C.3   618  LYS618      0.1093
     52  NZ       -11.9140  -30.0660   19.5960 N.3   618  LYS618     -0.1314
     53  N        -18.3640  -24.1780   19.7140 N.3   623  LEU623     -0.1245
     54  CA       -17.7100  -24.1120   21.0300 C.3   623  LEU623      0.1561
     55  C        -18.3930  -23.2420   22.0820 C.2   623  LEU623      0.2260
     56  O        -17.7740  -23.0450   23.1100 O.2   623  LEU623     -0.2867
     57  CB       -16.2270  -23.6560   20.8930 C.3   623  LEU623      0.0270
     58  CG       -15.2290  -24.5630   20.1520 C.3   623  LEU623      0.0019
     59  CD1      -13.9500  -23.8150   19.8510 C.3   623  LEU623      0.0001
     60  CD2      -14.9500  -25.8530   20.9210 C.3   623  LEU623      0.0001
     61  N        -19.1290  -25.0800   25.5150 N.3   626  ASP626     -0.1239
     62  CA       -17.8280  -25.2790   26.1490 C.3   626  ASP626      0.1674
     63  C        -17.4450  -24.0350   26.8640 C.2   626  ASP626      0.2266
     64  O        -17.1650  -24.0910   28.0540 O.2   626  ASP626     -0.2867
     65  CB       -16.7390  -25.5850   25.1050 C.3   626  ASP626      0.1410
     66  CG       -16.7380  -27.0240   24.6810 C.2   626  ASP626      0.3668
     67  OD1      -17.7310  -27.4580   24.0700 O.co2 626  ASP626     -0.2456
     68  OD2      -15.8040  -27.7410   25.0520 O.co2 626  ASP626     -0.2456
     69  N         -9.1410  -23.5500   31.4400 N.3   652  TYR652     -0.1241
     70  CA        -8.4160  -23.1780   30.2200 C.3   652  TYR652      0.1605
     71  C         -9.3640  -22.3430   29.3070 C.2   652  TYR652      0.2264
     72  O        -10.6000  -22.4600   29.4030 O.2   652  TYR652     -0.2867
     73  CB        -7.8130  -24.4470   29.5180 C.3   652  TYR652      0.0534
     74  CG        -8.8610  -25.4690   29.1140 C.ar  652  TYR652     -0.0201
     75  CD1       -9.5830  -25.3280   27.9280 C.ar  652  TYR652     -0.0009
     76  CD2       -9.2230  -26.5040   29.9720 C.ar  652  TYR652     -0.0009
     77  CE1      -10.6040  -26.2170   27.5890 C.ar  652  TYR652      0.0417
     78  CE2      -10.2440  -27.3980   29.6440 C.ar  652  TYR652      0.0417
     79  CZ       -10.9260  -27.2530   28.4470 C.ar  652  TYR652      0.1957
     80  OH       -11.9790  -28.0700   28.1350 O.3   652  TYR652     -0.2866
     81  N         -9.2600  -22.9520   21.4490 N.3   664  ILE664     -0.1231
     82  CA        -9.1210  -23.5730   22.7660 C.3   664  ILE664      0.1692
     83  C         -7.6670  -23.3890   23.1780 C.2   664  ILE664      0.2592
     84  O         -6.7500  -23.5880   22.3780 O.2   664  ILE664     -0.2718
     85  CB        -9.5540  -25.0760   22.7830 C.3   664  ILE664      0.0266
     86  CG1      -10.9940  -25.2640   22.2350 C.3   664  ILE664      0.0019
     87  CG2       -9.4680  -25.6630   24.1980 C.3   664  ILE664      0.0020
     88  CD1      -11.3310  -26.6200   21.8720 C.3   664  ILE664      0.0001
     89  N         -7.4530  -23.0570   24.4330 N.am  665  GLU665     -0.1966
     90  CA        -6.0910  -22.9370   24.9660 C.3   665  GLU665      0.1733
     91  C         -5.5290  -24.3300   25.2380 C.2   665  GLU665      0.2616
     92  O         -6.2070  -25.1580   25.8600 O.2   665  GLU665     -0.2715
     93  CB        -6.1070  -22.1080   26.2530 C.3   665  GLU665      0.0429
     94  CG        -4.7820  -22.0470   26.9880 C.3   665  GLU665      0.1163
     95  CD        -4.8760  -21.4090   28.3570 C.2   665  GLU665      0.3649
     96  OE1       -6.0060  -21.1290   28.8260 O.co2 665  GLU665     -0.2457
     97  OE2       -3.8090  -21.1690   28.9580 O.co2 665  GLU665     -0.2457
     98  N         -4.3090  -24.5910   24.7530 N.am  666  VAL666     -0.1963
     99  CA        -3.6340  -25.8530   25.0070 C.3   666  VAL666      0.1727
    100  C         -3.0510  -25.7980   26.4260 C.2   666  VAL666      0.2616
    101  O         -2.3740  -24.8120   26.7890 O.2   666  VAL666     -0.2715
    102  CB        -2.5290  -26.1880   23.9470 C.3   666  VAL666      0.0290
    103  CG1       -1.5700  -27.2950   24.4270 C.3   666  VAL666      0.0023
    104  CG2       -3.1370  -26.5260   22.5810 C.3   666  VAL666      0.0023
    105  N         -3.2760  -26.8790   27.2020 N.am  667  VAL667     -0.1977
    106  CA        -2.6210  -26.9940   28.5000 C.3   667  VAL667      0.1596
    107  C         -1.4370  -27.9690   28.2270 C.2   667  VAL667      0.2287
    108  O         -1.6400  -29.1410   27.8820 O.2   667  VAL667     -0.2864
    109  CB        -3.5760  -27.4640   29.6450 C.3   667  VAL667      0.0276
    110  CG1       -2.7940  -27.7490   30.9230 C.3   667  VAL667      0.0022
    111  CG2       -4.6610  -26.4210   29.9060 C.3   667  VAL667      0.0022
    112  N          0.1720  -32.2450   29.7390 N.3   670  SER670     -0.1217
    113  CA        -1.0740  -32.8910   30.1190 C.3   670  SER670      0.1889
    114  C         -1.3680  -33.9980   29.1400 C.2   670  SER670      0.2288
    115  O         -0.9280  -33.9510   27.9950 O.2   670  SER670     -0.2866
    116  CB        -2.2470  -31.9070   30.2470 C.3   670  SER670      0.2089
    117  OG        -2.7950  -31.4920   29.0070 O.3   670  SER670     -0.2183
    118  N        -11.2690  -40.3480   27.4130 N.3   736  ASP736     -0.1239
    119  CA       -10.6190  -39.4310   26.4800 C.3   736  ASP736      0.1674
    120  C        -11.0660  -37.9520   26.6620 C.2   736  ASP736      0.2266
    121  O        -10.5080  -37.0700   26.0120 O.2   736  ASP736     -0.2867
    122  CB       -10.7530  -39.9120   25.0080 C.3   736  ASP736      0.1410
    123  CG       -12.1650  -40.3080   24.6060 C.2   736  ASP736      0.3668
    124  OD1      -12.9850  -39.3910   24.3230 O.co2 736  ASP736     -0.2456
    125  OD2      -12.4560  -41.5380   24.5890 O.co2 736  ASP736     -0.2456
    126  N         -8.5100  -35.1990   31.4730 N.3   739  MET739     -0.1245
    127  CA        -7.0720  -35.0930   31.3350 C.3   739  MET739      0.1570
    128  C         -6.3880  -34.9180   32.6560 C.2   739  MET739      0.2261
    129  O         -7.0120  -34.5730   33.6610 O.2   739  MET739     -0.2867
    130  CB        -6.7020  -33.9470   30.3820 C.3   739  MET739      0.0387
    131  CG        -7.1980  -34.1640   28.9470 C.3   739  MET739      0.0595
    132  SD        -6.5540  -32.9220   27.7960 S.3   739  MET739     -0.1393
    133  CE        -4.9540  -33.6300   27.4500 C.3   739  MET739      0.0692
    134  N         -8.4830  -32.5570   35.0730 N.3   747  PHE747     -0.1241
    135  CA        -9.4680  -31.5950   34.5280 C.3   747  PHE747      0.1605
    136  C        -10.2700  -32.2360   33.4240 C.2   747  PHE747      0.2264
    137  O         -9.8250  -33.2090   32.8140 O.2   747  PHE747     -0.2867
    138  CB        -8.8600  -30.2200   34.1090 C.3   747  PHE747      0.0534
    139  CG        -7.8580  -30.2730   32.9730 C.ar  747  PHE747     -0.0203
    140  CD1       -6.5420  -30.6570   33.2010 C.ar  747  PHE747     -0.0042
    141  CD2       -8.2420  -29.9610   31.6690 C.ar  747  PHE747     -0.0042
    142  CE1       -5.6430  -30.7750   32.1460 C.ar  747  PHE747     -0.0003
    143  CE2       -7.3320  -30.0220   30.6280 C.ar  747  PHE747     -0.0003
    144  CZ        -6.0340  -30.4370   30.8720 C.ar  747  PHE747     -0.0000
    145  N        -12.5710  -31.8850   29.7920 N.3   749  ILE749     -0.1231
    146  CA       -12.6010  -31.2160   28.4950 C.3   749  ILE749      0.1692
    147  C        -13.8730  -31.6440   27.7560 C.2   749  ILE749      0.2592
    148  O        -14.5770  -32.5540   28.2260 O.2   749  ILE749     -0.2718
    149  CB       -11.3130  -31.4450   27.6240 C.3   749  ILE749      0.0266
    150  CG1      -11.0540  -32.9430   27.3010 C.3   749  ILE749      0.0019
    151  CG2      -10.0890  -30.7960   28.2140 C.3   749  ILE749      0.0020
    152  CD1      -10.4120  -33.1960   25.8550 C.3   749  ILE749      0.0001
    153  N        -14.1340  -31.0010   26.5790 N.am  750  ASP750     -0.1974
    154  CA       -15.2180  -31.2560   25.6260 C.3   750  ASP750      0.1709
    155  C        -16.5880  -31.2840   26.2860 C.2   750  ASP750      0.2293
    156  O        -17.1040  -32.3460   26.6260 O.2   750  ASP750     -0.2864
    157  CB       -14.9190  -32.5420   24.8140 C.3   750  ASP750      0.1436
    158  CG       -16.0110  -32.9000   23.8140 C.2   750  ASP750      0.3671
    159  OD1      -16.4650  -31.9890   23.0770 O.co2 750  ASP750     -0.2456
    160  OD2      -16.4870  -34.0630   23.8450 O.co2 750  ASP750     -0.2456
@<TRIPOS>BOND
     1    12    11    2
     2    11    10    1
     3     4     3    2
     4    15    16    1
     5    15    21    1
     6     3     2    1
     7    46    47    2
     8    46    45    1
     9     9    10    1
    10    10    13    1
    11    17    16    1
    12    17    18    2
    13    16    19    1
    14     1     2    1
    15    21    20    1
    16    45    44    1
    17    45    48    1
    18     2     5    1
    19    14    13    1
    20    22    23    1
    21    25    24    2
    22    19    20    1
    23     5     6    1
    24    24    23    1
    25    48    49    1
    26    23    26    1
    27    49    50    1
    28     6     7    1
    29    26    27    1
    30    38    39    2
    31    38    37    1
    32    28    27   ar
    33    28    30   ar
    34     7     8    1
    35    50    51    1
    36    51    52    1
    37    27    29   ar
    38    37    36    1
    39    37    40    1
    40    42    40    1
    41    30    31   ar
    42    53    54    1
    43    59    58    1
    44    40    41    1
    45    58    57    1
    46    58    60    1
    47    29    31   ar
    48    29    32   ar
    49    31    33   ar
    50    41    43    1
    51    57    54    1
    52    54    55    1
    53    32    34   ar
    54    81    82    1
    55    33    35   ar
    56    88    86    1
    57    55    56    2
    58    86    85    1
    59    34    35   ar
    60    84    83    2
    61   104   102    1
    62    82    85    1
    63    82    83    1
    64    85    87    1
    65   159   158   ar
    66    83    89   am
    67   158   160   ar
    68   158   157    1
    69   102   103    1
    70   102    99    1
    71    67    66   ar
    72   124   123   ar
    73    89    90    1
    74   125   123   ar
    75   123   122    1
    76    66    68   ar
    77    66    65    1
    78    98    99    1
    79    98    91   am
    80   157   154    1
    81    90    91    1
    82    90    93    1
    83    99   100    1
    84   122   119    1
    85    65    62    1
    86    91    92    2
    87    61    62    1
    88   154   155    1
    89   154   153    1
    90   152   150    1
    91   121   120    2
    92    62    63    1
    93    93    94    1
    94   155   156    2
    95   100   101    2
    96   100   105   am
    97   119   120    1
    98   119   118    1
    99   153   147   am
   100    63    64    2
   101    94    95    1
   102   105   106    1
   103   150   149    1
   104   133   132    1
   105    77    75   ar
   106    77    79   ar
   107   149   151    1
   108   149   146    1
   109   147   148    2
   110   147   146    1
   111   132   131    1
   112   108   107    2
   113    75    74   ar
   114   115   114    2
   115    80    79    1
   116   107   106    1
   117    95    96   ar
   118    95    97   ar
   119    79    78   ar
   120   146   145    1
   121   106   109    1
   122   131   130    1
   123   117   116    1
   124    74    73    1
   125    74    76   ar
   126   114   113    1
   127    71    72    2
   128    71    70    1
   129    73    70    1
   130    78    76   ar
   131   109   111    1
   132   109   110    1
   133   112   113    1
   134   113   116    1
   135    70    69    1
   136   130   127    1
   137   143   144   ar
   138   143   141   ar
   139   144   142   ar
   140   127   126    1
   141   127   128    1
   142   141   139   ar
   143   142   140   ar
   144   128   129    2
   145   137   136    2
   146   139   140   ar
   147   139   138    1
   148   136   135    1
   149   138   135    1
   150   135   134    1
