@<TRIPOS>MOLECULE
tmp/6q74A00.pdb
 191 180 0 0 0
SMALL
GASTEIGER

@<TRIPOS>ATOM
      1  N         -5.6610  -33.3900   15.1410 N.3   588  MET588     -0.1245
      2  CA        -6.3370  -34.5570   15.7040 C.3   588  MET588      0.1570
      3  C         -7.0060  -35.3810   14.6390 C.2   588  MET588      0.2261
      4  O         -7.3740  -34.8810   13.5710 O.2   588  MET588     -0.2867
      5  CB        -7.3610  -34.1560   16.7660 C.3   588  MET588      0.0387
      6  CG        -6.7510  -33.5460   18.0090 C.3   588  MET588      0.0595
      7  SD        -5.7170  -34.7150   18.9200 S.3   588  MET588     -0.1393
      8  CE        -6.9190  -36.0260   19.2820 C.3   588  MET588      0.0692
      9  N         -9.9490  -36.7600   14.7790 N.3   590  SER590     -0.1217
     10  CA       -11.4010  -36.5360   14.7510 C.3   590  SER590      0.1889
     11  C        -11.9540  -35.9520   13.4280 C.2   590  SER590      0.2288
     12  O        -11.2070  -35.4990   12.5590 O.2   590  SER590     -0.2866
     13  CB       -11.8400  -35.6790   15.9310 C.3   590  SER590      0.2089
     14  OG       -11.0240  -34.5280   16.0620 O.3   590  SER590     -0.2183
     15  N         -9.0770  -31.0110   14.0420 N.3   594  PRO594     -0.2116
     16  CA        -8.6140  -29.7340   14.6160 C.3   594  PRO594      0.1372
     17  C         -7.1010  -29.5850   14.5830 C.2   594  PRO594      0.2244
     18  O         -6.4100  -30.5620   14.7980 O.2   594  PRO594     -0.2868
     19  CB        -9.1480  -29.7700   16.0530 C.3   594  PRO594      0.0268
     20  CG        -9.4630  -31.1550   16.3080 C.3   594  PRO594      0.0207
     21  CD        -9.8300  -31.7890   15.0440 C.3   594  PRO594      0.0892
     22  N         -3.3850  -28.1330   15.8470 N.3   596  TRP596     -0.1241
     23  CA        -2.6410  -27.8460   17.0630 C.3   596  TRP596      0.1605
     24  C         -1.4300  -27.0760   16.6020 C.2   596  TRP596      0.2264
     25  O         -0.5420  -27.6430   15.9830 O.2   596  TRP596     -0.2867
     26  CB        -2.2300  -29.1330   17.7650 C.3   596  TRP596      0.0550
     27  CG        -3.3290  -29.7600   18.5560 C.ar  596  TRP596      0.0003
     28  CD1       -4.5880  -30.0630   18.1200 C.ar  596  TRP596      0.0946
     29  CD2       -3.2450  -30.2330   19.9120 C.ar  596  TRP596      0.0152
     30  NE1       -5.3230  -30.6040   19.1490 N.ar  596  TRP596     -0.2442
     31  CE2       -4.5110  -30.7560   20.2520 C.ar  596  TRP596      0.0810
     32  CE3       -2.2060  -30.2950   20.8660 C.ar  596  TRP596      0.0012
     33  CZ2       -4.7740  -31.3220   21.5060 C.ar  596  TRP596      0.0191
     34  CZ3       -2.4730  -30.8430   22.1090 C.ar  596  TRP596      0.0001
     35  CH2       -3.7460  -31.3480   22.4160 C.ar  596  TRP596      0.0015
     36  N         -5.4260  -24.5420   19.8110 N.3   613  ILE613     -0.1245
     37  CA        -6.1450  -25.5270   18.9770 C.3   613  ILE613      0.1561
     38  C         -7.1510  -24.7520   18.1220 C.2   613  ILE613      0.2260
     39  O         -8.0230  -24.1000   18.6810 O.2   613  ILE613     -0.2867
     40  CB        -6.8640  -26.6730   19.7760 C.3   613  ILE613      0.0252
     41  CG1       -5.9130  -27.3790   20.7250 C.3   613  ILE613      0.0019
     42  CG2       -7.5340  -27.6650   18.8270 C.3   613  ILE613      0.0019
     43  CD1       -6.4980  -27.9880   21.9500 C.3   613  ILE613      0.0001
     44  N        -10.2910  -25.0040   15.7860 N.3   615  LYS615     -0.1245
     45  CA       -11.4120  -25.9160   15.5490 C.3   615  LYS615      0.1561
     46  C        -12.4320  -25.3130   14.6150 C.2   615  LYS615      0.2260
     47  O        -12.8880  -24.2020   14.8310 O.2   615  LYS615     -0.2867
     48  CB       -12.0650  -26.3190   16.8650 C.3   615  LYS615      0.0271
     49  CG       -12.1180  -27.8050   17.0860 C.3   615  LYS615      0.0035
     50  CD       -12.3840  -28.0750   18.5480 C.3   615  LYS615      0.0206
     51  CE       -13.1070  -29.3580   18.8170 C.3   615  LYS615      0.1093
     52  NZ       -12.2300  -30.5120   18.5770 N.3   615  LYS615     -0.1314
     53  N        -18.3090  -24.0250   19.5680 N.3   620  LEU620     -0.1245
     54  CA       -17.6000  -24.0300   20.8640 C.3   620  LEU620      0.1561
     55  C        -18.2390  -23.1600   21.9740 C.2   620  LEU620      0.2260
     56  O        -17.5740  -22.8800   22.9670 O.2   620  LEU620     -0.2867
     57  CB       -16.1130  -23.6470   20.6880 C.3   620  LEU620      0.0270
     58  CG       -15.2160  -24.6440   20.0020 C.3   620  LEU620      0.0019
     59  CD1      -13.8610  -24.0380   19.7690 C.3   620  LEU620      0.0001
     60  CD2      -15.1050  -25.9540   20.7820 C.3   620  LEU620      0.0001
     61  N        -18.8050  -25.1960   25.4670 N.3   623  ASP623     -0.1239
     62  CA       -17.4960  -25.4790   26.0890 C.3   623  ASP623      0.1674
     63  C        -17.0700  -24.2600   26.8220 C.2   623  ASP623      0.2266
     64  O        -16.7020  -24.3800   27.9810 O.2   623  ASP623     -0.2867
     65  CB       -16.4280  -25.7930   25.0270 C.3   623  ASP623      0.1410
     66  CG       -16.1420  -27.2590   24.8270 C.2   623  ASP623      0.3668
     67  OD1      -16.8650  -27.8950   24.0480 O.co2 623  ASP623     -0.2456
     68  OD2      -15.1880  -27.7660   25.4510 O.co2 623  ASP623     -0.2456
     69  N         -9.0320  -23.6430   31.3620 N.3   649  TYR649     -0.1241
     70  CA        -8.3020  -23.2180   30.1680 C.3   649  TYR649      0.1605
     71  C         -9.2280  -22.4350   29.2140 C.2   649  TYR649      0.2264
     72  O        -10.4460  -22.6290   29.2330 O.2   649  TYR649     -0.2867
     73  CB        -7.6290  -24.4390   29.4590 C.3   649  TYR649      0.0534
     74  CG        -8.6150  -25.5260   29.0780 C.ar  649  TYR649     -0.0201
     75  CD1       -9.3490  -25.4440   27.8980 C.ar  649  TYR649     -0.0009
     76  CD2       -8.8960  -26.5790   29.9490 C.ar  649  TYR649     -0.0009
     77  CE1      -10.3080  -26.4000   27.5740 C.ar  649  TYR649      0.0417
     78  CE2       -9.8630  -27.5320   29.6420 C.ar  649  TYR649      0.0417
     79  CZ       -10.5620  -27.4380   28.4510 C.ar  649  TYR649      0.1957
     80  OH       -11.5360  -28.3280   28.1200 O.3   649  TYR649     -0.2866
     81  N         -8.9560  -23.0270   21.3570 N.3   661  ILE661     -0.1231
     82  CA        -8.8990  -23.6730   22.6700 C.3   661  ILE661      0.1692
     83  C         -7.4610  -23.5370   23.1080 C.2   661  ILE661      0.2592
     84  O         -6.5690  -23.5130   22.2740 O.2   661  ILE661     -0.2718
     85  CB        -9.3830  -25.1600   22.6820 C.3   661  ILE661      0.0266
     86  CG1      -10.7590  -25.3210   21.9670 C.3   661  ILE661      0.0019
     87  CG2       -9.4650  -25.7100   24.1250 C.3   661  ILE661      0.0020
     88  CD1      -11.0290  -26.6600   21.4290 C.3   661  ILE661      0.0001
     89  N         -7.2440  -23.3690   24.4050 N.am  662  GLU662     -0.1966
     90  CA        -5.9200  -23.2530   24.9990 C.3   662  GLU662      0.1733
     91  C         -5.4050  -24.6350   25.2920 C.2   662  GLU662      0.2616
     92  O         -6.0790  -25.4220   25.9500 O.2   662  GLU662     -0.2715
     93  CB        -6.0140  -22.4530   26.2910 C.3   662  GLU662      0.0429
     94  CG        -4.6680  -22.0810   26.8720 C.3   662  GLU662      0.1163
     95  CD        -4.7300  -21.6730   28.3190 C.2   662  GLU662      0.3649
     96  OE1       -5.7260  -21.0310   28.7180 O.co2 662  GLU662     -0.2457
     97  OE2       -3.7640  -21.9740   29.0550 O.co2 662  GLU662     -0.2457
     98  N         -4.2500  -24.9480   24.7560 N.am  663  VAL663     -0.1963
     99  CA        -3.6090  -26.2440   24.9450 C.3   663  VAL663      0.1727
    100  C         -2.9720  -26.2450   26.3210 C.2   663  VAL663      0.2616
    101  O         -2.1650  -25.3630   26.6300 O.2   663  VAL663     -0.2715
    102  CB        -2.5390  -26.5170   23.8550 C.3   663  VAL663      0.0290
    103  CG1       -1.7380  -27.7780   24.1700 C.3   663  VAL663      0.0023
    104  CG2       -3.1740  -26.6240   22.4880 C.3   663  VAL663      0.0023
    105  N         -3.3240  -27.2250   27.1440 N.am  664  VAL664     -0.1977
    106  CA        -2.6970  -27.3220   28.4590 C.3   664  VAL664      0.1596
    107  C         -1.4800  -28.2030   28.2150 C.2   664  VAL664      0.2287
    108  O         -1.6210  -29.3510   27.8030 O.2   664  VAL664     -0.2864
    109  CB        -3.6520  -27.7820   29.6000 C.3   664  VAL664      0.0276
    110  CG1       -2.8980  -27.9790   30.8970 C.3   664  VAL664      0.0022
    111  CG2       -4.7660  -26.7710   29.8140 C.3   664  VAL664      0.0022
    112  N          0.4190  -32.3000   29.7140 N.3   667  SER667     -0.1202
    113  CA        -0.7560  -33.0300   30.1480 C.3   667  SER667      0.2020
    114  C         -1.0230  -34.1600   29.1440 C.2   667  SER667      0.2619
    115  O         -0.4560  -34.1450   28.0520 O.2   667  SER667     -0.2717
    116  CB        -1.9520  -32.0950   30.3570 C.3   667  SER667      0.2103
    117  OG        -2.6700  -31.7270   29.1930 O.3   667  SER667     -0.2182
    118  N         -1.7720  -35.1830   29.5440 N.am  668  ASP668     -0.1959
    119  CA        -2.1020  -36.3030   28.6700 C.3   668  ASP668      0.1840
    120  C         -3.4970  -36.7630   29.0760 C.2   668  ASP668      0.2622
    121  O         -4.0270  -36.2590   30.0650 O.2   668  ASP668     -0.2715
    122  CB        -1.0620  -37.4440   28.7950 C.3   668  ASP668      0.1450
    123  CG        -0.8280  -38.2490   27.5160 C.2   668  ASP668      0.3671
    124  OD1       -1.5660  -38.0320   26.5260 O.co2 668  ASP668     -0.2456
    125  OD2        0.0880  -39.1190   27.5150 O.co2 668  ASP668     -0.2456
    126  N         -4.1200  -37.6540   28.3070 N.am  669  THR669     -0.1951
    127  CA        -5.4550  -38.1340   28.6660 C.3   669  THR669      0.1897
    128  C         -5.2940  -39.3800   29.5130 C.2   669  THR669      0.2313
    129  O         -4.2880  -40.0800   29.3680 O.2   669  THR669     -0.2863
    130  CB        -6.3030  -38.4450   27.4050 C.3   669  THR669      0.1794
    131  OG1       -5.6670  -39.4740   26.6400 O.3   669  THR669     -0.2208
    132  CG2       -6.5740  -37.2230   26.5580 C.3   669  THR669      0.0378
    133  N         -4.5020  -42.3720   27.2180 N.3   672  ASN672     -0.1240
    134  CA        -3.1180  -42.5840   26.7720 C.3   672  ASN672      0.1653
    135  C         -2.2170  -43.0670   27.8840 C.2   672  ASN672      0.2266
    136  O         -1.3310  -43.8820   27.6380 O.2   672  ASN672     -0.2867
    137  CB        -2.5520  -41.3410   26.0930 C.3   672  ASN672      0.1155
    138  CG        -3.3560  -40.8940   24.9080 C.2   672  ASN672      0.2627
    139  OD1       -3.8200  -41.7020   24.1000 O.2   672  ASN672     -0.2716
    140  ND2       -3.5770  -39.5960   24.8030 N.am  672  ASN672     -0.0877
    141  N        -10.8080  -40.5150   27.6330 N.3   733  ASP733     -0.1225
    142  CA       -10.2090  -39.6440   26.6270 C.3   733  ASP733      0.1805
    143  C        -10.5390  -38.1530   26.8230 C.2   733  ASP733      0.2597
    144  O         -9.8140  -37.3200   26.2920 O.2   733  ASP733     -0.2718
    145  CB       -10.5570  -40.1290   25.2010 C.3   733  ASP733      0.1424
    146  CG       -11.9020  -40.8290   25.0980 C.2   733  ASP733      0.3668
    147  OD1      -12.9430  -40.1230   25.0330 O.co2 733  ASP733     -0.2456
    148  OD2      -11.9210  -42.0770   25.1130 O.co2 733  ASP733     -0.2456
    149  N        -11.6150  -37.8090   27.5670 N.am  734  ASN734     -0.1974
    150  CA       -11.9760  -36.4140   27.8190 C.3   734  ASN734      0.1688
    151  C        -11.7340  -35.9890   29.2970 C.2   734  ASN734      0.2292
    152  O        -12.2680  -34.9710   29.7620 O.2   734  ASN734     -0.2864
    153  CB       -13.3880  -36.0800   27.3280 C.3   734  ASN734      0.1181
    154  CG       -14.5290  -36.8730   27.9070 C.2   734  ASN734      0.2629
    155  OD1      -14.4990  -37.4050   29.0210 O.2   734  ASN734     -0.2716
    156  ND2      -15.6140  -36.8820   27.1840 N.am  734  ASN734     -0.0877
    157  N         -8.2760  -35.3450   31.4220 N.3   736  MET736     -0.1245
    158  CA        -6.8340  -35.1710   31.2620 C.3   736  MET736      0.1570
    159  C         -6.1050  -35.0270   32.5870 C.2   736  MET736      0.2261
    160  O         -6.7020  -34.6470   33.5930 O.2   736  MET736     -0.2867
    161  CB        -6.5500  -33.9430   30.4190 C.3   736  MET736      0.0387
    162  CG        -7.0870  -34.0250   29.0110 C.3   736  MET736      0.0595
    163  SD        -6.0700  -32.9590   27.9620 S.3   736  MET736     -0.1393
    164  CE        -4.7250  -33.9850   27.6970 C.3   736  MET736      0.0692
    165  N         -8.0140  -32.6980   35.1040 N.3   744  PHE744     -0.1241
    166  CA        -9.0140  -31.7700   34.5540 C.3   744  PHE744      0.1605
    167  C         -9.8160  -32.4280   33.4570 C.2   744  PHE744      0.2264
    168  O         -9.4090  -33.4580   32.9250 O.2   744  PHE744     -0.2867
    169  CB        -8.4460  -30.4100   34.1370 C.3   744  PHE744      0.0534
    170  CG        -7.5160  -30.4270   32.9520 C.ar  744  PHE744     -0.0203
    171  CD1       -6.1650  -30.7350   33.1110 C.ar  744  PHE744     -0.0042
    172  CD2       -7.9720  -30.0580   31.6840 C.ar  744  PHE744     -0.0042
    173  CE1       -5.3120  -30.7490   32.0130 C.ar  744  PHE744     -0.0003
    174  CE2       -7.1070  -30.0460   30.5900 C.ar  744  PHE744     -0.0003
    175  CZ        -5.7850  -30.3880   30.7640 C.ar  744  PHE744     -0.0000
    176  N        -12.0570  -32.0880   29.8160 N.3   746  ILE746     -0.1231
    177  CA       -12.1950  -31.3830   28.5440 C.3   746  ILE746      0.1692
    178  C        -13.5310  -31.7990   27.8830 C.2   746  ILE746      0.2592
    179  O        -14.2560  -32.6430   28.4290 O.2   746  ILE746     -0.2718
    180  CB       -10.9780  -31.5700   27.5820 C.3   746  ILE746      0.0266
    181  CG1      -10.7820  -33.0650   27.1710 C.3   746  ILE746      0.0019
    182  CG2       -9.7150  -30.9410   28.1510 C.3   746  ILE746      0.0020
    183  CD1       -9.9920  -33.3040   25.9220 C.3   746  ILE746      0.0001
    184  N        -13.8310  -31.2010   26.7030 N.am  747  ASP747     -0.1974
    185  CA       -14.9580  -31.4820   25.7980 C.3   747  ASP747      0.1709
    186  C        -16.3430  -31.4980   26.4690 C.2   747  ASP747      0.2293
    187  O        -16.8750  -32.5630   26.7950 O.2   747  ASP747     -0.2864
    188  CB       -14.6880  -32.7800   25.0290 C.3   747  ASP747      0.1436
    189  CG       -15.6260  -33.0320   23.8810 C.2   747  ASP747      0.3671
    190  OD1      -16.0720  -32.0410   23.2480 O.co2 747  ASP747     -0.2456
    191  OD2      -15.8830  -34.2220   23.5780 O.co2 747  ASP747     -0.2456
@<TRIPOS>BOND
     1    12    11    2
     2    11    10    1
     3     4     3    2
     4    15    16    1
     5    15    21    1
     6    17    16    1
     7    17    18    2
     8    46    47    2
     9    46    45    1
    10    16    19    1
    11     3     2    1
    12    10     9    1
    13    10    13    1
    14    21    20    1
    15     1     2    1
    16    45    44    1
    17    45    48    1
    18     2     5    1
    19    22    23    1
    20    13    14    1
    21    25    24    2
    22    19    20    1
    23    24    23    1
    24     5     6    1
    25    48    49    1
    26    23    26    1
    27    49    50    1
    28    26    27    1
    29     6     7    1
    30    28    27   ar
    31    28    30   ar
    32    38    39    2
    33    38    37    1
    34    50    51    1
    35    27    29   ar
    36    52    51    1
    37    42    40    1
    38     7     8    1
    39    37    40    1
    40    37    36    1
    41    30    31   ar
    42    53    54    1
    43    59    58    1
    44    40    41    1
    45    29    31   ar
    46    29    32   ar
    47    58    57    1
    48    58    60    1
    49    31    33   ar
    50    57    54    1
    51    41    43    1
    52    54    55    1
    53    32    34   ar
    54    81    82    1
    55    88    86    1
    56    33    35   ar
    57    86    85    1
    58    55    56    2
    59    34    35   ar
    60    84    83    2
    61   104   102    1
    62    82    85    1
    63    82    83    1
    64    85    87    1
    65    83    89   am
    66   190   189   ar
    67   191   189   ar
    68   102   103    1
    69   102    99    1
    70   189   188    1
    71    67    66   ar
    72   139   138    2
    73    89    90    1
    74    98    99    1
    75    98    91   am
    76   140   138   am
    77    66    65    1
    78    66    68   ar
    79   138   137    1
    80    99   100    1
    81    90    91    1
    82    90    93    1
    83    65    62    1
    84   188   185    1
    85   147   146   ar
    86   146   148   ar
    87   146   145    1
    88   145   142    1
    89    91    92    2
    90    61    62    1
    91   185   186    1
    92   185   184    1
    93   183   181    1
    94    62    63    1
    95   137   134    1
    96    93    94    1
    97   144   143    2
    98   100   101    2
    99   100   105   am
   100   186   187    2
   101   124   123   ar
   102   132   130    1
   103   142   143    1
   104   142   141    1
   105   131   130    1
   106   184   178   am
   107   134   133    1
   108   134   135    1
   109    63    64    2
   110   143   149   am
   111    94    95    1
   112   105   106    1
   113   181   180    1
   114   156   154   am
   115   153   150    1
   116   153   154    1
   117   130   127    1
   118   125   123   ar
   119   123   122    1
   120   149   150    1
   121    77    75   ar
   122    77    79   ar
   123   180   182    1
   124   180   177    1
   125   136   135    2
   126   164   163    1
   127   108   107    2
   128   150   151    1
   129   178   179    2
   130   178   177    1
   131    75    74   ar
   132   154   155    2
   133   163   162    1
   134   115   114    2
   135    80    79    1
   136   107   106    1
   137   126   127    1
   138   126   120   am
   139    95    96   ar
   140    95    97   ar
   141    79    78   ar
   142   106   109    1
   143   177   176    1
   144   127   128    1
   145   119   122    1
   146   119   120    1
   147   119   118    1
   148   162   161    1
   149   120   121    2
   150    74    73    1
   151    74    76   ar
   152   114   118   am
   153   114   113    1
   154   117   116    1
   155    71    72    2
   156    71    70    1
   157   151   152    2
   158   129   128    2
   159    73    70    1
   160   109   111    1
   161   109   110    1
   162    78    76   ar
   163   112   113    1
   164   113   116    1
   165    70    69    1
   166   161   158    1
   167   174   175   ar
   168   174   172   ar
   169   175   173   ar
   170   158   157    1
   171   158   159    1
   172   172   170   ar
   173   173   171   ar
   174   159   160    2
   175   168   167    2
   176   170   171   ar
   177   170   169    1
   178   167   166    1
   179   169   166    1
   180   166   165    1
