@<TRIPOS>MOLECULE
tmp/6q8kA00.pdb
 161 151 0 0 0
SMALL
GASTEIGER

@<TRIPOS>ATOM
      1  N        -15.2200   19.8240   17.0890 N.3    21  LEU21      -0.1231
      2  CA       -14.7630   18.8920   18.1160 C.3    21  LEU21       0.1693
      3  C        -13.2750   18.6170   17.8850 C.2    21  LEU21       0.2593
      4  O        -12.5810   18.3510   18.8500 O.2    21  LEU21      -0.2718
      5  CB       -15.6300   17.6300   17.9890 C.3    21  LEU21       0.0284
      6  CG       -17.0920   17.7650   18.4470 C.3    21  LEU21       0.0019
      7  CD1      -17.7150   16.4140   18.7450 C.3    21  LEU21       0.0001
      8  CD2      -17.2320   18.6490   19.6860 C.3    21  LEU21       0.0001
      9  N        -12.7970   18.6530   16.6520 N.am   22  GLY22      -0.1942
     10  CA       -11.4500   18.1640   16.2800 C.3    22  GLY22       0.2014
     11  C        -11.1730   18.3970   14.8030 C.2    22  GLY22       0.2639
     12  O        -12.1370   18.2850   13.9870 O.2    22  GLY22      -0.2714
     13  N         -9.9490   18.8140   14.4720 N.am   23  GLU23      -0.1963
     14  CA        -9.4710   19.0180   13.0830 C.3    23  GLU23       0.1733
     15  C         -8.2970   18.0550   12.8540 C.2    23  GLU23       0.2616
     16  O         -8.2400   17.0090   13.5330 O.2    23  GLU23      -0.2715
     17  CB        -9.1080   20.4800   12.8660 C.3    23  GLU23       0.0429
     18  CG       -10.2520   21.4530   13.1310 C.3    23  GLU23       0.1163
     19  CD       -10.1520   22.7380   12.3050 C.2    23  GLU23       0.3649
     20  OE1       -9.4920   22.6810   11.2410 O.co2  23  GLU23      -0.2457
     21  OE2      -10.7320   23.8010   12.7130 O.co2  23  GLU23      -0.2457
     22  N         -7.4330   18.3130   11.8860 N.am   24  GLY24      -0.1955
     23  CA        -6.4110   17.3190   11.5080 C.3    24  GLY24       0.1869
     24  C         -6.3900   17.0900   10.0130 C.2    24  GLY24       0.2309
     25  O         -7.0360   17.8760    9.2990 O.2    24  GLY24      -0.2863
     26  N         -6.9590   14.0920    8.0720 N.3    26  PHE26      -0.1241
     27  CA        -8.0900   13.2630    7.5670 C.3    26  PHE26       0.1605
     28  C         -9.3630   14.0940    7.3210 C.2    26  PHE26       0.2264
     29  O        -10.2070   13.6350    6.5030 O.2    26  PHE26      -0.2867
     30  CB        -8.4930   12.1860    8.5810 C.3    26  PHE26       0.0534
     31  CG        -9.1760   12.7380    9.8160 C.ar   26  PHE26      -0.0203
     32  CD1      -10.5320   13.0410    9.8060 C.ar   26  PHE26      -0.0042
     33  CD2       -8.4450   13.0230   10.9600 C.ar   26  PHE26      -0.0042
     34  CE1      -11.1370   13.6140   10.9090 C.ar   26  PHE26      -0.0003
     35  CE2       -9.0630   13.5680   12.0710 C.ar   26  PHE26      -0.0003
     36  CZ       -10.4060   13.8600   12.0440 C.ar   26  PHE26      -0.0000
     37  N        -14.1660   16.8140   12.7370 N.3    29  VAL29      -0.1245
     38  CA       -15.2670   16.2240   13.5360 C.3    29  VAL29       0.1561
     39  C        -16.0420   17.3710   14.1360 C.2    29  VAL29       0.2260
     40  O        -15.4030   18.2590   14.7070 O.2    29  VAL29      -0.2867
     41  CB       -14.7800   15.2840   14.6360 C.3    29  VAL29       0.0252
     42  CG1      -15.9660   14.7650   15.4260 C.3    29  VAL29       0.0019
     43  CG2      -13.9630   14.1260   14.0910 C.3    29  VAL29       0.0019
     44  N        -21.7730   13.1700   16.9830 N.3    43  ALA43      -0.1245
     45  CA       -20.5500   13.6130   16.2840 C.3    43  ALA43       0.1562
     46  C        -20.6060   13.1460   14.8370 C.2    43  ALA43       0.2260
     47  O        -20.9700   12.0050   14.6260 O.2    43  ALA43      -0.2867
     48  CB       -19.3500   13.0220   16.9590 C.3    43  ALA43       0.0290
     49  N        -17.8910   12.9740   11.6650 N.3    45  LYS45      -0.1245
     50  CA       -16.5630   13.0960   11.0060 C.3    45  LYS45       0.1561
     51  C        -16.8130   13.3760    9.5170 C.2    45  LYS45       0.2260
     52  O        -17.4180   12.5630    8.8520 O.2    45  LYS45      -0.2867
     53  CB       -15.7420   11.8530   11.3500 C.3    45  LYS45       0.0271
     54  CG       -14.3830   11.6320   10.6870 C.3    45  LYS45       0.0035
     55  CD       -13.9810   10.1800   11.0390 C.3    45  LYS45       0.0206
     56  CE       -12.5520    9.7260   10.8270 C.3    45  LYS45       0.1093
     57  NZ       -12.3150    8.4980   11.6600 N.3    45  LYS45      -0.1314
     58  N        -16.2230    2.9330   19.8720 N.3    79  VAL79      -0.1245
     59  CA       -17.2700    3.9230   19.5290 C.3    79  VAL79       0.1561
     60  C        -18.3220    3.2790   18.6050 C.2    79  VAL79       0.2260
     61  O        -17.9370    2.5500   17.6340 O.2    79  VAL79      -0.2867
     62  CB       -16.6510    5.1980   18.9320 C.3    79  VAL79       0.0252
     63  CG1      -15.9430    4.9900   17.5980 C.3    79  VAL79       0.0019
     64  CG2      -17.6920    6.2790   18.7960 C.3    79  VAL79       0.0019
     65  N        -21.4510    9.3290   14.5650 N.3    95  PHE95      -0.1227
     66  CA       -21.0620    8.5970   15.7950 C.3    95  PHE95       0.1736
     67  C        -21.8560    9.1160   16.9700 C.2    95  PHE95       0.2595
     68  O        -22.2440   10.2530   16.9580 O.2    95  PHE95      -0.2718
     69  CB       -19.5860    8.7810   16.1280 C.3    95  PHE95       0.0547
     70  CG       -18.6340    8.2500   15.0930 C.ar   95  PHE95      -0.0202
     71  CD1      -18.2700    6.9170   15.0960 C.ar   95  PHE95      -0.0042
     72  CD2      -18.0030    9.1150   14.1940 C.ar   95  PHE95      -0.0042
     73  CE1      -17.3490    6.4330   14.1700 C.ar   95  PHE95      -0.0003
     74  CE2      -17.0860    8.6410   13.2630 C.ar   95  PHE95      -0.0003
     75  CZ       -16.7830    7.2930   13.2400 C.ar   95  PHE95      -0.0000
     76  N        -22.0450    8.2780   17.9650 N.am   96  GLU96      -0.1965
     77  CA       -22.5400    8.6690   19.3160 C.3    96  GLU96       0.1733
     78  C        -21.5970    9.7830   19.7820 C.2    96  GLU96       0.2616
     79  O        -20.4030    9.6970   19.5180 O.2    96  GLU96      -0.2715
     80  CB       -22.5710    7.4620   20.2630 C.3    96  GLU96       0.0429
     81  CG       -21.1770    6.8610   20.4990 C.3    96  GLU96       0.1163
     82  CD       -21.0500    5.7640   21.5660 C.2    96  GLU96       0.3649
     83  OE1      -21.8020    5.8110   22.5650 O.co2  96  GLU96      -0.2457
     84  OE2      -20.1810    4.8340   21.3720 O.co2  96  GLU96      -0.2457
     85  N        -22.1140   10.7960   20.4560 N.am   97  LEU97      -0.1963
     86  CA       -21.2560   11.9030   20.9550 C.3    97  LEU97       0.1728
     87  C        -20.5340   11.4100   22.2170 C.2    97  LEU97       0.2616
     88  O        -21.2240   11.0170   23.1730 O.2    97  LEU97      -0.2715
     89  CB       -22.1000   13.1560   21.2220 C.3    97  LEU97       0.0311
     90  CG       -21.3170   14.3740   21.7080 C.3    97  LEU97       0.0022
     91  CD1      -20.3580   14.9260   20.6410 C.3    97  LEU97       0.0001
     92  CD2      -22.2750   15.4500   22.2170 C.3    97  LEU97       0.0001
     93  N        -19.1990   11.4610   22.2490 N.am   98  LEU98      -0.1963
     94  CA       -18.4550   11.1260   23.4970 C.3    98  LEU98       0.1728
     95  C        -17.9900   12.4330   24.1270 C.2    98  LEU98       0.2616
     96  O        -18.3370   13.4660   23.5620 O.2    98  LEU98      -0.2715
     97  CB       -17.3020   10.1920   23.1520 C.3    98  LEU98       0.0311
     98  CG       -17.7290    8.9460   22.4050 C.3    98  LEU98       0.0022
     99  CD1      -16.5550    8.2980   21.7630 C.3    98  LEU98       0.0001
    100  CD2      -18.4260    7.9860   23.3210 C.3    98  LEU98       0.0001
    101  N        -17.2450   12.3910   25.2170 N.am   99  GLY99      -0.1955
    102  CA       -16.6410   13.5970   25.8180 C.3    99  GLY99       0.1869
    103  C        -15.2850   13.9210   25.2120 C.2    99  GLY99       0.2309
    104  O        -15.0370   13.4780   24.1130 O.2    99  GLY99      -0.2863
    105  N         -2.8750    2.9640   15.3000 N.3   142  ASP142     -0.1239
    106  CA        -2.6890    4.4050   15.5670 C.3   142  ASP142      0.1674
    107  C         -3.2640    4.7580   16.9420 C.2   142  ASP142      0.2266
    108  O         -4.0320    5.7270   17.0580 O.2   142  ASP142     -0.2867
    109  CB        -3.3020    5.2370   14.4500 C.3   142  ASP142      0.1410
    110  CG        -2.7930    6.6670   14.4910 C.2   142  ASP142      0.3668
    111  OD1       -1.6420    6.9120   14.9690 O.co2 142  ASP142     -0.2456
    112  OD2       -3.5670    7.5190   14.1100 O.co2 142  ASP142     -0.2456
    113  N         -3.1600    6.4340   20.4380 N.3   144  LYS144     -0.1245
    114  CA        -2.5150    7.6610   20.9220 C.3   144  LYS144      0.1561
    115  C         -3.5840    8.4040   21.6920 C.2   144  LYS144      0.2260
    116  O         -4.7510    8.0350   21.6330 O.2   144  LYS144     -0.2867
    117  CB        -1.9230    8.4850   19.7750 C.3   144  LYS144      0.0271
    118  CG        -2.9630    8.9410   18.7680 C.3   144  LYS144      0.0035
    119  CD        -2.4630    9.7480   17.5840 C.3   144  LYS144      0.0206
    120  CE        -3.6170   10.0490   16.6160 C.3   144  LYS144      0.1093
    121  NZ        -3.2060   10.9380   15.4880 N.3   144  LYS144     -0.1314
    122  N         -5.1250   11.1490   21.5450 N.3   146  GLU146     -0.1231
    123  CA        -6.1840   11.7960   20.7370 C.3   146  GLU146      0.1699
    124  C         -7.2630   10.7690   20.3980 C.2   146  GLU146      0.2592
    125  O         -8.3940   11.1930   20.2970 O.2   146  GLU146     -0.2718
    126  CB        -5.6500   12.4560   19.4660 C.3   146  GLU146      0.0402
    127  CG        -4.5900   13.5140   19.7060 C.3   146  GLU146      0.1161
    128  CD        -3.1340   13.0300   19.6690 C.2   146  GLU146      0.3649
    129  OE1       -2.7520   11.9720   20.3420 O.co2 146  GLU146     -0.2457
    130  OE2       -2.3410   13.7810   19.0260 O.co2 146  GLU146     -0.2457
    131  N         -6.9490    9.4690   20.4040 N.am  147  ASN147     -0.1974
    132  CA        -7.8630    8.3820   19.9400 C.3   147  ASN147      0.1688
    133  C         -8.4620    7.6080   21.1020 C.2   147  ASN147      0.2292
    134  O         -9.1700    6.6120   20.8510 O.2   147  ASN147     -0.2864
    135  CB        -7.1410    7.4510   18.9900 C.3   147  ASN147      0.1181
    136  CG        -7.1290    8.0700   17.6290 C.2   147  ASN147      0.2629
    137  OD1       -7.8660    9.0350   17.4080 O.2   147  ASN147     -0.2716
    138  ND2       -6.3200    7.5390   16.7230 N.am  147  ASN147     -0.0877
    139  N        -11.0230    8.6900   24.1750 N.3   149  LEU149     -0.1245
    140  CA       -11.9740    9.7490   24.5530 C.3   149  LEU149      0.1561
    141  C        -12.7160    9.2790   25.7780 C.2   149  LEU149      0.2260
    142  O        -13.1430    8.1560   25.7820 O.2   149  LEU149     -0.2867
    143  CB       -12.9460    9.9990   23.3950 C.3   149  LEU149      0.0270
    144  CG       -12.4950   11.0350   22.3930 C.3   149  LEU149      0.0019
    145  CD1      -11.2540   10.5900   21.6290 C.3   149  LEU149      0.0001
    146  CD2      -13.6090   11.3570   21.4220 C.3   149  LEU149      0.0001
    147  N        -11.4910    5.3550   19.5620 N.3   178  VAL178     -0.1231
    148  CA       -12.0170    5.8510   18.2690 C.3   178  VAL178      0.1692
    149  C        -10.9480    5.7170   17.2050 C.2   178  VAL178      0.2592
    150  O         -9.7930    5.2990   17.5230 O.2   178  VAL178     -0.2718
    151  CB       -12.5460    7.2970   18.3630 C.3   178  VAL178      0.0266
    152  CG1      -13.5150    7.4700   19.4970 C.3   178  VAL178      0.0020
    153  CG2      -11.4310    8.3100   18.4380 C.3   178  VAL178      0.0020
    154  N        -11.3920    6.0240   15.9870 N.am  179  ASP179     -0.1974
    155  CA       -10.6120    6.0950   14.7400 C.3   179  ASP179      0.1709
    156  C        -10.1380    4.7080   14.2790 C.2   179  ASP179      0.2293
    157  O         -8.9970    4.2820   14.6490 O.2   179  ASP179     -0.2864
    158  CB        -9.4330    7.0190   14.9510 C.3   179  ASP179      0.1436
    159  CG        -8.7060    7.2790   13.6570 C.2   179  ASP179      0.3671
    160  OD1       -9.2370    6.8540   12.6010 O.co2 179  ASP179     -0.2456
    161  OD2       -7.5670    7.8150   13.7350 O.co2 179  ASP179     -0.2456
@<TRIPOS>BOND
     1    29    28    2
     2    28    27    1
     3    27    26    1
     4    27    30    1
     5    30    31    1
     6    52    51    2
     7    25    24    2
     8    51    50    1
     9    32    31   ar
    10    32    34   ar
    11    31    33   ar
    12    24    23    1
    13    54    55    1
    14    54    53    1
    15    56    55    1
    16    56    57    1
    17    34    36   ar
    18    33    35   ar
    19    50    53    1
    20    50    49    1
    21    20    19   ar
    22    23    22    1
    23    22    15   am
    24    36    35   ar
    25    19    21   ar
    26    19    18    1
    27   160   159   ar
    28    37    38    1
    29    15    14    1
    30    15    16    2
    31    17    14    1
    32    17    18    1
    33    14    13    1
    34    75    74   ar
    35    75    73   ar
    36    74    72   ar
    37    38    39    1
    38    38    41    1
    39   159   161   ar
    40   159   158    1
    41    12    11    2
    42    43    41    1
    43   112   110   ar
    44    39    40    2
    45    73    71   ar
    46    72    70   ar
    47   156   157    2
    48   156   155    1
    49   109   110    1
    50   109   106    1
    51    13    11   am
    52   110   111   ar
    53    65    66    1
    54    47    46    2
    55    41    42    1
    56   155   158    1
    57   155   154    1
    58    11    10    1
    59    46    45    1
    60    70    71   ar
    61    70    69    1
    62   105   106    1
    63   121   120    1
    64   106   107    1
    65    66    69    1
    66    66    67    1
    67   154   149   am
    68    10     9    1
    69    45    48    1
    70    45    44    1
    71   120   119    1
    72     9     3   am
    73   138   136   am
    74   107   108    2
    75    68    67    2
    76    67    76   am
    77     1     2    1
    78   149   150    2
    79   149   148    1
    80   137   136    2
    81   119   118    1
    82    63    62    1
    83   136   135    1
    84    61    60    2
    85     3     2    1
    86     3     4    2
    87    76    77    1
    88     5     2    1
    89     5     6    1
    90   148   151    1
    91   148   147    1
    92   151   153    1
    93   151   152    1
    94     6     7    1
    95     6     8    1
    96    60    59    1
    97   118   117    1
    98    64    62    1
    99    62    59    1
   100   135   132    1
   101   130   128   ar
   102    77    78    1
   103    77    80    1
   104   126   127    1
   105   126   123    1
   106    79    78    2
   107    59    58    1
   108   128   127    1
   109   128   129   ar
   110   117   114    1
   111    78    85   am
   112   132   131    1
   113   132   133    1
   114    80    81    1
   115   125   124    2
   116   124   131   am
   117   124   123    1
   118   113   114    1
   119    85    86    1
   120    81    82    1
   121    91    90    1
   122   123   122    1
   123   134   133    2
   124   114   115    1
   125    86    89    1
   126    86    87    1
   127    89    90    1
   128    84    82   ar
   129   146   144    1
   130    82    83   ar
   131   145   144    1
   132   116   115    2
   133    90    92    1
   134    99    98    1
   135    87    93   am
   136    87    88    2
   137    93    94    1
   138   144   143    1
   139    98    97    1
   140    98   100    1
   141    97    94    1
   142   143   140    1
   143    94    95    1
   144    96    95    2
   145   104   103    2
   146    95   101   am
   147   139   140    1
   148   140   141    1
   149   103   102    1
   150   101   102    1
   151   141   142    2
