@<TRIPOS>MOLECULE
tmp/6q8pA00.pdb
 137 128 0 0 0
SMALL
GASTEIGER

@<TRIPOS>ATOM
      1  N        -18.9960    7.8150   33.9170 N.3    22  LEU22      -0.1231
      2  CA       -17.5420    7.8590   33.8830 C.3    22  LEU22       0.1693
      3  C        -16.9750    7.5670   32.5060 C.2    22  LEU22       0.2592
      4  O        -15.8930    8.0560   32.1760 O.2    22  LEU22      -0.2718
      5  CB       -16.9570    6.8670   34.8930 C.3    22  LEU22       0.0284
      6  CG       -17.3620    7.0620   36.3590 C.3    22  LEU22       0.0019
      7  CD1      -16.8720    5.9230   37.2270 C.3    22  LEU22       0.0001
      8  CD2      -16.8450    8.3710   36.8900 C.3    22  LEU22       0.0001
      9  N        -17.6780    6.7970   31.6920 N.am   23  GLY23      -0.1957
     10  CA       -17.1900    6.5140   30.3610 C.3    23  GLY23       0.1869
     11  C        -18.1340    5.6340   29.5760 C.2    23  GLY23       0.2309
     12  O        -18.7870    4.7600   30.1450 O.2    23  GLY23      -0.2863
     13  N        -19.0150   -1.8380   24.7890 N.3    27  PHE27      -0.1241
     14  CA       -19.3650   -2.8210   25.8030 C.3    27  PHE27       0.1605
     15  C        -20.5130   -2.3600   26.6870 C.2    27  PHE27       0.2264
     16  O        -21.2210   -3.1970   27.2560 O.2    27  PHE27      -0.2867
     17  CB       -18.1500   -3.1170   26.6760 C.3    27  PHE27       0.0534
     18  CG       -17.6340   -1.9170   27.4110 C.ar   27  PHE27      -0.0203
     19  CD1      -16.6910   -1.0880   26.8310 C.ar   27  PHE27      -0.0042
     20  CD2      -18.0980   -1.6090   28.6760 C.ar   27  PHE27      -0.0042
     21  CE1      -16.2190    0.0200   27.4980 C.ar   27  PHE27      -0.0003
     22  CE2      -17.6290   -0.5010   29.3470 C.ar   27  PHE27      -0.0003
     23  CZ       -16.6870    0.3140   28.7570 C.ar   27  PHE27      -0.0000
     24  N        -19.8060    2.8870   32.1960 N.3    30  VAL30      -0.1245
     25  CA       -19.3820    2.7990   33.5860 C.3    30  VAL30       0.1561
     26  C        -19.9070    4.0310   34.3030 C.2    30  VAL30       0.2260
     27  O        -19.6860    5.1570   33.8470 O.2    30  VAL30      -0.2867
     28  CB       -17.8510    2.6960   33.7140 C.3    30  VAL30       0.0252
     29  CG1      -17.4310    2.6520   35.1710 C.3    30  VAL30       0.0019
     30  CG2      -17.3400    1.4700   32.9830 C.3    30  VAL30       0.0019
     31  N        -17.9690    2.4240   41.4680 N.3    44  ALA44      -0.1245
     32  CA       -18.1340    2.4100   40.0250 C.3    44  ALA44       0.1562
     33  C        -18.8140    1.1140   39.6190 C.2    44  ALA44       0.2260
     34  O        -18.4710    0.0420   40.1230 O.2    44  ALA44      -0.2867
     35  CB       -16.7920    2.5360   39.3010 C.3    44  ALA44       0.0290
     36  N        -20.0550   -1.0760   36.1790 N.3    46  LYS46      -0.1245
     37  CA       -20.0210   -1.2940   34.7410 C.3    46  LYS46       0.1561
     38  C        -21.2520   -2.0810   34.3030 C.2    46  LYS46       0.2260
     39  O        -21.5490   -3.1470   34.8480 O.2    46  LYS46      -0.2867
     40  CB       -18.7430   -2.0300   34.3390 C.3    46  LYS46       0.0271
     41  CG       -18.7890   -2.6080   32.9390 C.3    46  LYS46       0.0035
     42  CD       -17.4330   -2.6060   32.2600 C.3    46  LYS46       0.0206
     43  CE       -16.4710   -3.5720   32.8720 C.3    46  LYS46       0.1093
     44  NZ       -15.3140   -3.7380   31.9830 N.3    46  LYS46      -0.1314
     45  N         -7.3340   -3.6830   39.5750 N.3    80  VAL80      -0.1245
     46  CA        -8.5340   -3.0850   40.1390 C.3    80  VAL80       0.1561
     47  C         -9.2930   -4.1380   40.9360 C.2    80  VAL80       0.2260
     48  O         -9.3180   -5.3210   40.5750 O.2    80  VAL80      -0.2867
     49  CB        -9.4000   -2.4660   39.0290 C.3    80  VAL80       0.0252
     50  CG1      -10.0100   -3.5420   38.1620 C.3    80  VAL80       0.0019
     51  CG2      -10.4720   -1.5720   39.6260 C.3    80  VAL80       0.0019
     52  N        -16.7740   -2.1210   40.9120 N.3    96  PHE96      -0.1227
     53  CA       -15.3630   -1.9340   41.1980 C.3    96  PHE96       0.1736
     54  C        -15.1800   -0.8420   42.2380 C.2    96  PHE96       0.2595
     55  O        -16.1090   -0.1120   42.5800 O.2    96  PHE96      -0.2718
     56  CB       -14.5910   -1.5700   39.9280 C.3    96  PHE96       0.0547
     57  CG       -14.7320   -2.5650   38.8220 C.ar   96  PHE96      -0.0202
     58  CD1      -13.9070   -3.6670   38.7640 C.ar   96  PHE96      -0.0042
     59  CD2      -15.6600   -2.3800   37.8220 C.ar   96  PHE96      -0.0042
     60  CE1      -14.0230   -4.5740   37.7530 C.ar   96  PHE96      -0.0003
     61  CE2      -15.7780   -3.2890   36.8030 C.ar   96  PHE96      -0.0003
     62  CZ       -14.9570   -4.3860   36.7690 C.ar   96  PHE96      -0.0000
     63  N        -13.9590   -0.7390   42.7440 N.am   97  GLU97      -0.1965
     64  CA       -13.5930    0.4080   43.5570 C.3    97  GLU97       0.1733
     65  C        -13.5090    1.6490   42.6810 C.2    97  GLU97       0.2616
     66  O        -13.2090    1.5710   41.4900 O.2    97  GLU97      -0.2715
     67  CB       -12.2620    0.1580   44.2560 C.3    97  GLU97       0.0429
     68  CG       -11.1550   -0.2600   43.3040 C.3    97  GLU97       0.1163
     69  CD        -9.7930   -0.2460   43.9530 C.2    97  GLU97       0.3649
     70  OE1       -9.6900    0.2400   45.0950 O.co2  97  GLU97      -0.2457
     71  OE2       -8.8330   -0.7390   43.3310 O.co2  97  GLU97      -0.2457
     72  N        -13.7840    2.8020   43.2770 N.am   98  LEU98      -0.1963
     73  CA       -13.8160    4.0440   42.5190 C.3    98  LEU98       0.1728
     74  C        -12.4050    4.5950   42.3540 C.2    98  LEU98       0.2616
     75  O        -11.7260    4.8770   43.3430 O.2    98  LEU98      -0.2715
     76  CB       -14.7100    5.0680   43.2060 C.3    98  LEU98       0.0311
     77  CG       -14.9460    6.3140   42.3590 C.3    98  LEU98       0.0022
     78  CD1      -15.6030    5.9300   41.0480 C.3    98  LEU98       0.0001
     79  CD2      -15.7670    7.3370   43.1080 C.3    98  LEU98       0.0001
     80  N        -11.9730    4.7630   41.1080 N.am   99  LEU99      -0.1963
     81  CA       -10.6710    5.3130   40.7720 C.3    99  LEU99       0.1728
     82  C        -10.8430    6.6890   40.1420 C.2    99  LEU99       0.2616
     83  O        -11.9470    7.2220   40.0520 O.2    99  LEU99      -0.2715
     84  CB        -9.9220    4.3670   39.8340 C.3    99  LEU99       0.0311
     85  CG        -9.7380    2.9340   40.3320 C.3    99  LEU99       0.0022
     86  CD1       -9.1730    2.0550   39.2390 C.3    99  LEU99       0.0001
     87  CD2       -8.8430    2.9120   41.5450 C.3    99  LEU99       0.0001
     88  N         -9.7320    7.2630   39.6980 N.am  100  GLY100     -0.1955
     89  CA        -9.7310    8.5600   39.0580 C.3   100  GLY100      0.1869
     90  C         -9.7630    8.4520   37.5500 C.2   100  GLY100      0.2309
     91  O        -10.1000    7.4140   36.9760 O.2   100  GLY100     -0.2863
     92  N         -8.8150    7.9990   33.7320 N.3   102  SER102     -0.1217
     93  CA        -7.8650    7.1870   32.9980 C.3   102  SER102      0.1889
     94  C         -6.7330    8.0690   32.4980 C.2   102  SER102      0.2288
     95  O         -6.8980    9.2750   32.3100 O.2   102  SER102     -0.2866
     96  CB        -8.5340    6.4880   31.8240 C.3   102  SER102      0.2089
     97  OG        -8.7330    7.3900   30.7580 O.3   102  SER102     -0.2183
     98  N         -6.4080    4.1070   27.9870 N.3   147  GLU147     -0.1231
     99  CA        -7.7470    4.1140   28.5580 C.3   147  GLU147      0.1699
    100  C         -7.9310    3.0620   29.6400 C.2   147  GLU147      0.2592
    101  O         -8.9250    3.1280   30.3680 O.2   147  GLU147     -0.2718
    102  CB        -8.8020    3.9070   27.4700 C.3   147  GLU147      0.0402
    103  CG        -8.8360    4.9750   26.4090 C.3   147  GLU147      0.1161
    104  CD        -8.1470    4.5370   25.1420 C.2   147  GLU147      0.3649
    105  OE1       -6.9300    4.2640   25.1960 O.co2 147  GLU147     -0.2457
    106  OE2       -8.8230    4.4580   24.0930 O.co2 147  GLU147     -0.2457
    107  N         -7.0150    2.1040   29.7620 N.am  148  ASN148     -0.1974
    108  CA        -7.1100    1.0580   30.7710 C.3   148  ASN148      0.1688
    109  C         -6.1130    1.2220   31.9060 C.2   148  ASN148      0.2292
    110  O         -6.0260    0.3430   32.7640 O.2   148  ASN148     -0.2864
    111  CB        -6.9250   -0.3150   30.1310 C.3   148  ASN148      0.1181
    112  CG        -8.1150   -0.7360   29.3190 C.2   148  ASN148      0.2629
    113  OD1       -9.2240   -0.2570   29.5330 O.2   148  ASN148     -0.2716
    114  ND2       -7.8970   -1.6390   28.3810 N.am  148  ASN148     -0.0877
    115  N         -5.6530    3.6080   34.9350 N.3   150  LEU150     -0.1245
    116  CA        -6.4150    4.6110   35.6640 C.3   150  LEU150      0.1561
    117  C         -5.6250    5.1240   36.8570 C.2   150  LEU150      0.2260
    118  O         -4.9780    4.3470   37.5610 O.2   150  LEU150     -0.2867
    119  CB        -7.7490    4.0400   36.1520 C.3   150  LEU150      0.0270
    120  CG        -8.9850    4.2020   35.2680 C.3   150  LEU150      0.0019
    121  CD1       -8.8240    3.4720   33.9590 C.3   150  LEU150      0.0001
    122  CD2      -10.1940    3.6960   35.9940 C.3   150  LEU150      0.0001
    123  N         -7.2200   -1.8740   34.4880 N.3   179  VAL179     -0.1231
    124  CA        -8.6190   -2.2920   34.4510 C.3   179  VAL179      0.1692
    125  C         -8.9100   -3.0950   33.1920 C.2   179  VAL179      0.2592
    126  O         -8.0130   -3.3590   32.3880 O.2   179  VAL179     -0.2718
    127  CB        -9.5690   -1.0840   34.5460 C.3   179  VAL179      0.0266
    128  CG1       -9.2910   -0.2760   35.7910 C.3   179  VAL179      0.0020
    129  CG2       -9.4550   -0.2250   33.3150 C.3   179  VAL179      0.0020
    130  N        -10.1760   -3.4810   33.0200 N.am  180  ASP180     -0.1974
    131  CA       -10.6740   -4.2100   31.8570 C.3   180  ASP180      0.1709
    132  C         -9.9400   -5.5180   31.6180 C.2   180  ASP180      0.2293
    133  O         -8.9130   -5.5420   30.9380 O.2   180  ASP180     -0.2864
    134  CB       -10.5990   -3.3530   30.5960 C.3   180  ASP180      0.1436
    135  CG       -11.3720   -3.9550   29.4500 C.2   180  ASP180      0.3671
    136  OD1      -12.3600   -4.6590   29.7190 O.co2 180  ASP180     -0.2456
    137  OD2      -11.0100   -3.7230   28.2830 O.co2 180  ASP180     -0.2456
@<TRIPOS>BOND
     1   106   104   ar
     2    13    14    1
     3   104   105   ar
     4   104   103    1
     5    14    17    1
     6    14    15    1
     7   103   102    1
     8    17    18    1
     9    15    16    2
    10    19    18   ar
    11    19    21   ar
    12    18    20   ar
    13   102    99    1
    14    21    23   ar
    15    98    99    1
    16   137   135   ar
    17   114   112   am
    18    99   100    1
    19    20    22   ar
    20    23    22   ar
    21   112   113    2
    22   112   111    1
    23   135   136   ar
    24   135   134    1
    25    11    12    2
    26    11    10    1
    27   100   107   am
    28   100   101    2
    29   107   108    1
    30   111   108    1
    31    10     9    1
    32   134   131    1
    33    97    96    1
    34   108   109    1
    35   133   132    2
    36   132   131    1
    37     9     3   am
    38    96    93    1
    39   131   130    1
    40   109   110    2
    41    44    43    1
    42     4     3    2
    43    24    25    1
    44    42    43    1
    45    42    41    1
    46    95    94    2
    47   126   125    2
    48    94    93    1
    49     3     2    1
    50    41    40    1
    51    30    28    1
    52    93    92    1
    53   130   125   am
    54   125   124    1
    55   129   127    1
    56    25    28    1
    57    25    26    1
    58    28    29    1
    59    27    26    2
    60     2     1    1
    61     2     5    1
    62   121   120    1
    63    38    37    1
    64    38    39    2
    65    40    37    1
    66   124   123    1
    67   124   127    1
    68   127   128    1
    69    37    36    1
    70     5     6    1
    71   115   116    1
    72   120   122    1
    73   120   119    1
    74   116   119    1
    75   116   117    1
    76     6     8    1
    77     6     7    1
    78    62    61   ar
    79    62    60   ar
    80    61    59   ar
    81   117   118    2
    82    91    90    2
    83    90    89    1
    84    60    58   ar
    85    59    57   ar
    86    50    49    1
    87    58    57   ar
    88    57    56    1
    89    49    51    1
    90    49    46    1
    91    89    88    1
    92    86    85    1
    93    35    32    1
    94    45    46    1
    95    33    32    1
    96    33    34    2
    97    88    82   am
    98    84    85    1
    99    84    81    1
   100    56    53    1
   101    32    31    1
   102    83    82    2
   103    46    47    1
   104    82    81    1
   105    85    87    1
   106    48    47    2
   107    81    80    1
   108    52    53    1
   109    78    77    1
   110    80    74   am
   111    53    54    1
   112    66    65    2
   113    54    55    2
   114    54    63   am
   115    74    73    1
   116    74    75    2
   117    77    79    1
   118    77    76    1
   119    73    76    1
   120    73    72    1
   121    65    72   am
   122    65    64    1
   123    63    64    1
   124    68    69    1
   125    68    67    1
   126    71    69   ar
   127    64    67    1
   128    69    70   ar
