@<TRIPOS>MOLECULE
tmp/6q8zA02.pdb
 85 78 0 0 0
SMALL
GASTEIGER

@<TRIPOS>ATOM
      1  N        -30.1100  -23.5870  -10.9170 N.3     9  VAL9       -0.1245
      2  CA       -30.2280  -22.5090   -9.9680 C.3     9  VAL9        0.1561
      3  C        -30.4980  -23.1350   -8.5910 C.2     9  VAL9        0.2260
      4  O        -29.9850  -22.6630   -7.5510 O.2     9  VAL9       -0.2867
      5  CB       -31.3100  -21.5070  -10.3680 C.3     9  VAL9        0.0252
      6  CG1      -32.6700  -22.1630  -10.4240 C.3     9  VAL9        0.0019
      7  CG2      -31.2830  -20.2960   -9.4070 C.3     9  VAL9        0.0019
      8  N        -28.9600  -22.1960   -5.1770 N.3    13  LEU13      -0.1245
      9  CA       -29.7930  -21.6530   -4.1050 C.3    13  LEU13       0.1561
     10  C        -29.5550  -22.4220   -2.7890 C.2    13  LEU13       0.2260
     11  O        -29.3580  -21.8100   -1.7000 O.2    13  LEU13      -0.2867
     12  CB       -31.2630  -21.7160   -4.4890 C.3    13  LEU13       0.0270
     13  CG       -32.2050  -21.2760   -3.3750 C.3    13  LEU13       0.0019
     14  CD1      -31.8880  -19.8370   -2.9830 C.3    13  LEU13       0.0001
     15  CD2      -33.6440  -21.4050   -3.7610 C.3    13  LEU13       0.0001
     16  N        -33.6980  -14.3430   -2.3740 N.3    31  ALA31      -0.1231
     17  CA       -32.7250  -14.8600   -3.2740 C.3    31  ALA31       0.1694
     18  C        -32.9020  -14.1650   -4.6620 C.2    31  ALA31       0.2592
     19  O        -33.9980  -13.9530   -5.1120 O.2    31  ALA31      -0.2718
     20  CB       -32.8770  -16.3630   -3.4410 C.3    31  ALA31       0.0304
     21  N        -31.8090  -13.8390   -5.2810 N.am   32  VAL32      -0.1966
     22  CA       -31.8650  -13.3550   -6.7070 C.3    32  VAL32       0.1727
     23  C        -30.7770  -13.9860   -7.4970 C.2    32  VAL32       0.2616
     24  O        -29.8200  -14.4850   -6.9470 O.2    32  VAL32      -0.2715
     25  CB       -31.7330  -11.8400   -6.8180 C.3    32  VAL32       0.0290
     26  CG1      -32.7670  -11.1410   -5.9720 C.3    32  VAL32       0.0023
     27  CG2      -30.3350  -11.4040   -6.4070 C.3    32  VAL32       0.0023
     28  N        -30.8820  -13.9100   -8.8470 N.am   33  SER33      -0.1950
     29  CA       -29.8430  -14.4110   -9.6940 C.3    33  SER33       0.1924
     30  C        -29.7420  -13.4910  -10.9180 C.2    33  SER33       0.2314
     31  O        -30.6870  -12.7540  -11.1900 O.2    33  SER33      -0.2863
     32  CB       -30.1540  -15.8360  -10.1190 C.3    33  SER33       0.2116
     33  OG       -31.4430  -15.8910  -10.7180 O.3    33  SER33      -0.2180
     34  N        -24.5100  -18.4720  -13.7790 N.3    60  MET60      -0.1245
     35  CA       -25.1250  -17.3520  -13.1350 C.3    60  MET60       0.1570
     36  C        -24.5410  -17.0600  -11.7280 C.2    60  MET60       0.2261
     37  O        -23.9200  -17.9150  -11.1370 O.2    60  MET60      -0.2867
     38  CB       -26.6010  -17.6070  -12.9800 C.3    60  MET60       0.0387
     39  CG       -26.9240  -18.6890  -11.9360 C.3    60  MET60       0.0595
     40  SD       -28.6310  -19.1430  -11.8360 S.3    60  MET60      -0.1393
     41  CE       -28.7190  -20.2280  -13.2540 C.3    60  MET60       0.0692
     42  N        -25.6960  -15.9380   -7.7970 N.3    62  VAL62      -0.1245
     43  CA       -26.8680  -15.9550   -6.9400 C.3    62  VAL62       0.1561
     44  C        -26.5000  -15.2170   -5.6410 C.2    62  VAL62       0.2260
     45  O        -25.3860  -15.3380   -5.2030 O.2    62  VAL62      -0.2867
     46  CB       -27.3720  -17.4090   -6.6500 C.3    62  VAL62       0.0252
     47  CG1      -28.2810  -17.4760   -5.4010 C.3    62  VAL62       0.0019
     48  CG2      -28.0680  -17.9910   -7.8590 C.3    62  VAL62       0.0019
     49  N        -30.5610  -18.3210  -21.8410 N.3   384  ALA384     -0.1231
     50  CA       -31.1720  -18.4050  -20.5260 C.3   384  ALA384      0.1694
     51  C        -31.9450  -17.1370  -20.1920 C.2   384  ALA384      0.2592
     52  O        -31.7570  -16.1170  -20.8440 O.2   384  ALA384     -0.2718
     53  CB       -30.0580  -18.6380  -19.4580 C.3   384  ALA384      0.0304
     54  N        -32.7560  -17.1940  -19.1340 N.am  385  ASP385     -0.1974
     55  CA       -33.3990  -16.0270  -18.5220 C.3   385  ASP385      0.1709
     56  C        -32.3750  -15.0330  -17.9500 C.2   385  ASP385      0.2293
     57  O        -31.2390  -15.4000  -17.6790 O.2   385  ASP385     -0.2864
     58  CB       -34.3310  -16.4510  -17.3670 C.3   385  ASP385      0.1436
     59  CG       -35.6490  -16.9960  -17.8320 C.2   385  ASP385      0.3671
     60  OD1      -36.0600  -16.6900  -18.9550 O.co2 385  ASP385     -0.2456
     61  OD2      -36.2860  -17.7120  -17.0520 O.co2 385  ASP385     -0.2456
     62  N        -33.5900  -12.6620  -11.9840 N.3   388  LYS388     -0.1231
     63  CA       -34.7620  -13.2470  -11.3780 C.3   388  LYS388      0.1693
     64  C        -34.7470  -13.0880   -9.8600 C.2   388  LYS388      0.2592
     65  O        -33.6850  -12.8650   -9.2970 O.2   388  LYS388     -0.2718
     66  CB       -34.8200  -14.7550  -11.6310 C.3   388  LYS388      0.0285
     67  CG       -35.0170  -15.0270  -13.1140 C.3   388  LYS388      0.0035
     68  CD       -35.3790  -16.4520  -13.3550 C.3   388  LYS388      0.0206
     69  CE       -34.1290  -17.2530  -13.3630 C.3   388  LYS388      0.1093
     70  NZ       -34.4620  -18.6790  -13.3470 N.3   388  LYS388     -0.1314
     71  N        -35.9320  -13.1680   -9.2810 N.am  389  VAL389     -0.1966
     72  CA       -36.1240  -12.9890   -7.7910 C.3   389  VAL389      0.1727
     73  C        -36.9440  -14.1350   -7.2490 C.2   389  VAL389      0.2616
     74  O        -37.9680  -14.5200   -7.8550 O.2   389  VAL389     -0.2715
     75  CB       -36.8440  -11.6700   -7.4390 C.3   389  VAL389      0.0290
     76  CG1      -37.0480  -11.5420   -5.8950 C.3   389  VAL389      0.0023
     77  CG2      -36.0430  -10.5040   -7.9110 C.3   389  VAL389      0.0023
     78  N        -36.5770  -14.6400   -6.0610 N.am  390  LEU390     -0.1977
     79  CA       -37.3740  -15.6680   -5.4380 C.3   390  LEU390      0.1596
     80  C        -37.4720  -15.3430   -3.9580 C.2   390  LEU390      0.2287
     81  O        -36.4220  -15.3060   -3.2950 O.2   390  LEU390     -0.2864
     82  CB       -36.7380  -17.0300   -5.6460 C.3   390  LEU390      0.0297
     83  CG       -37.5410  -18.0830   -4.8890 C.3   390  LEU390      0.0022
     84  CD1      -38.9340  -18.2700   -5.5520 C.3   390  LEU390      0.0001
     85  CD2      -36.7690  -19.3920   -4.7930 C.3   390  LEU390      0.0001
@<TRIPOS>BOND
     1    49    50    1
     2    52    51    2
     3    50    51    1
     4    50    53    1
     5    51    54   am
     6    54    55    1
     7    60    59   ar
     8    55    56    1
     9    55    58    1
    10    56    57    2
    11    59    58    1
    12    59    61   ar
    13    34    35    1
    14    69    68    1
    15    69    70    1
    16    68    67    1
    17    41    40    1
    18    35    38    1
    19    35    36    1
    20    67    66    1
    21    38    39    1
    22    62    63    1
    23    39    40    1
    24    36    37    2
    25    66    63    1
    26    63    64    1
    27    31    30    2
    28    30    29    1
    29     1     2    1
    30    33    32    1
    31     6     5    1
    32     5     2    1
    33     5     7    1
    34    32    29    1
    35     2     3    1
    36    64    65    2
    37    64    71   am
    38    29    28    1
    39    71    72    1
    40    28    23   am
    41     3     4    2
    42    77    75    1
    43    48    46    1
    44    74    73    2
    45    42    43    1
    46    72    75    1
    47    72    73    1
    48    23    24    2
    49    23    22    1
    50    75    76    1
    51    73    78   am
    52    43    46    1
    53    43    44    1
    54    25    22    1
    55    25    27    1
    56    25    26    1
    57    22    21    1
    58    46    47    1
    59    78    79    1
    60    82    79    1
    61    82    83    1
    62    44    45    2
    63    84    83    1
    64    79    80    1
    65    21    18   am
    66     8     9    1
    67    19    18    2
    68    83    85    1
    69    18    17    1
    70    12     9    1
    71    12    13    1
    72     9    10    1
    73    80    81    2
    74    15    13    1
    75    20    17    1
    76    13    14    1
    77    17    16    1
    78    10    11    2
