@<TRIPOS>MOLECULE
tmp/6q90C02.pdb
 117 110 0 0 0
SMALL
GASTEIGER

@<TRIPOS>ATOM
      1  N          5.3900    5.2390   51.0680 N.3    40  LEU40      -0.1245
      2  CA         4.5350    6.0970   51.9250 C.3    40  LEU40       0.1561
      3  C          5.0740    6.0280   53.3660 C.2    40  LEU40       0.2260
      4  O          5.1220    7.0880   54.0470 O.2    40  LEU40      -0.2867
      5  CB         3.0790    5.6340   51.8070 C.3    40  LEU40       0.0270
      6  CG         2.4570    5.7680   50.4130 C.3    40  LEU40       0.0019
      7  CD1        1.0320    5.2600   50.3750 C.3    40  LEU40       0.0001
      8  CD2        2.4950    7.2120   49.9650 C.3    40  LEU40       0.0001
      9  N          3.6820    3.0140   46.8960 N.3    55  MET55      -0.1245
     10  CA         2.6770    3.3600   45.8690 C.3    55  MET55       0.1570
     11  C          3.4380    3.7000   44.5790 C.2    55  MET55       0.2261
     12  O          4.4350    4.4570   44.6490 O.2    55  MET55      -0.2867
     13  CB         1.8890    4.5580   46.3970 C.3    55  MET55       0.0387
     14  CG         0.9670    5.2010   45.4400 C.3    55  MET55       0.0595
     15  SD         0.3160    6.7600   46.1040 S.3    55  MET55      -0.1393
     16  CE         1.1840    7.9880   45.1270 C.3    55  MET55       0.0692
     17  N         -4.8770    3.6940   41.9640 N.3   195  GLY195     -0.1225
     18  CA        -5.8100    3.8970   43.0860 C.3   195  GLY195      0.1811
     19  C         -5.5730    2.9160   44.2300 C.2   195  GLY195      0.2280
     20  O         -6.5060    2.7280   45.0460 O.2   195  GLY195     -0.2866
     21  N         -6.8830    3.3250   47.9940 N.3   212  LEU212     -0.1231
     22  CA        -6.8680    4.7540   48.3930 C.3   212  LEU212      0.1693
     23  C         -8.2040    5.3450   47.9450 C.2   212  LEU212      0.2593
     24  O         -8.3170    5.6550   46.7290 O.2   212  LEU212     -0.2718
     25  CB        -5.7010    5.4900   47.7240 C.3   212  LEU212      0.0284
     26  CG        -4.3190    5.2310   48.3220 C.3   212  LEU212      0.0019
     27  CD1       -4.0740    3.7540   48.4650 C.3   212  LEU212      0.0001
     28  CD2       -3.2240    5.8200   47.4620 C.3   212  LEU212      0.0001
     29  N         -9.1370    5.5060   48.8990 N.am  213  SER213     -0.1938
     30  CA       -10.5880    5.7510   48.6760 C.3   213  SER213      0.2055
     31  C        -11.0200    7.1480   49.1620 C.2   213  SER213      0.2643
     32  O        -12.1320    7.2370   49.7240 O.2   213  SER213     -0.2714
     33  CB       -11.4050    4.6660   49.3490 C.3   213  SER213      0.2130
     34  OG       -11.2160    4.6060   50.7460 O.3   213  SER213     -0.2179
     35  N        -10.2200    8.2020   48.9280 N.am  214  ASP214     -0.1957
     36  CA       -10.6570    9.6140   49.1270 C.3   214  ASP214      0.1825
     37  C        -10.0740   10.5230   48.0480 C.2   214  ASP214      0.2464
     38  O         -8.8800   10.7950   48.0490 O.2   214  ASP214     -0.2730
     39  CB       -10.2850   10.1350   50.5140 C.3   214  ASP214      0.1450
     40  CG       -10.8150   11.5310   50.7910 C.2   214  ASP214      0.3671
     41  OD1      -11.4420   12.1160   49.8730 O.co2 214  ASP214     -0.2456
     42  OD2      -10.6030   12.0210   51.9240 O.co2 214  ASP214     -0.2456
     43  N        -10.9030   11.0720   47.1280 N.am  215  PRO215     -0.2727
     44  CA       -10.4040   11.9590   46.0670 C.3   215  PRO215      0.1402
     45  C         -9.9740   13.3740   46.5090 C.2   215  PRO215      0.2269
     46  O         -9.3840   14.0920   45.7090 O.2   215  PRO215     -0.2865
     47  CB       -11.5920   12.0450   45.0890 C.3   215  PRO215      0.0296
     48  CG       -12.8190   11.7590   45.9370 C.3   215  PRO215      0.0237
     49  CD       -12.3520   10.8270   47.0380 C.3   215  PRO215      0.0939
     50  N         -7.7040   13.8890   48.5820 N.3   217  LEU217     -0.1231
     51  CA        -6.3280   13.6480   49.0840 C.3   217  LEU217      0.1693
     52  C         -5.3910   13.4680   47.9060 C.2   217  LEU217      0.2592
     53  O         -5.8040   12.8570   46.9250 O.2   217  LEU217     -0.2718
     54  CB        -6.2740   12.3770   49.9380 C.3   217  LEU217      0.0284
     55  CG        -6.7940   12.4720   51.3720 C.3   217  LEU217      0.0019
     56  CD1       -5.8990   11.6680   52.3000 C.3   217  LEU217      0.0001
     57  CD2       -6.9010   13.9120   51.8550 C.3   217  LEU217      0.0001
     58  N         -4.1560   13.9240   48.0710 N.am  218  ALA218     -0.1966
     59  CA        -3.0690   13.7600   47.0920 C.3   218  ALA218      0.1728
     60  C         -1.7820   13.4430   47.8430 C.2   218  ALA218      0.2616
     61  O         -1.7230   13.6630   49.0580 O.2   218  ALA218     -0.2715
     62  CB        -2.9300   15.0160   46.2690 C.3   218  ALA218      0.0334
     63  N         -0.7950   12.9420   47.1150 N.am  219  VAL219     -0.1977
     64  CA         0.5880   12.7920   47.6070 C.3   219  VAL219      0.1596
     65  C          1.4070   13.8440   46.8820 C.2   219  VAL219      0.2287
     66  O          1.3630   13.8640   45.6510 O.2   219  VAL219     -0.2864
     67  CB         1.1160   11.3730   47.3580 C.3   219  VAL219      0.0276
     68  CG1        2.5900   11.2810   47.6590 C.3   219  VAL219      0.0022
     69  CG2        0.3520   10.3390   48.1600 C.3   219  VAL219      0.0022
     70  N         -5.0670    3.3710   56.8310 N.3   294  LEU294     -0.1245
     71  CA        -5.4660    3.4110   55.4010 C.3   294  LEU294      0.1561
     72  C         -6.8210    2.7000   55.2430 C.2   294  LEU294      0.2260
     73  O         -7.7350    3.2880   54.6590 O.2   294  LEU294     -0.2867
     74  CB        -4.3630    2.7250   54.5890 C.3   294  LEU294      0.0270
     75  CG        -3.8020    3.5070   53.4090 C.3   294  LEU294      0.0019
     76  CD1       -3.6030    4.9710   53.7560 C.3   294  LEU294      0.0001
     77  CD2       -2.4990    2.8760   52.9490 C.3   294  LEU294      0.0001
     78  N         -6.7000    9.2930   57.6570 N.3   299  TYR299     -0.1241
     79  CA        -5.5740    9.9020   56.9100 C.3   299  TYR299      0.1605
     80  C         -4.7740   10.7930   57.8540 C.2   299  TYR299      0.2264
     81  O         -3.5350   10.8550   57.7090 O.2   299  TYR299     -0.2867
     82  CB        -6.0960   10.6210   55.6630 C.3   299  TYR299      0.0534
     83  CG        -6.7210    9.6790   54.6640 C.ar  299  TYR299     -0.0201
     84  CD1       -6.0340    8.5630   54.2220 C.ar  299  TYR299     -0.0009
     85  CD2       -7.9910    9.8950   54.1530 C.ar  299  TYR299     -0.0009
     86  CE1       -6.5900    7.6770   53.3140 C.ar  299  TYR299      0.0417
     87  CE2       -8.5620    9.0220   53.2380 C.ar  299  TYR299      0.0417
     88  CZ        -7.8600    7.9050   52.8170 C.ar  299  TYR299      0.1957
     89  OH        -8.3910    7.0240   51.9140 O.3   299  TYR299     -0.2866
     90  N         -2.5880    8.4060   59.6570 N.3   302  PHE302     -0.1241
     91  CA        -1.5590    7.9950   58.6740 C.3   302  PHE302      0.1605
     92  C         -0.4380    9.0480   58.6690 C.2   302  PHE302      0.2264
     93  O          0.7470    8.7070   58.7670 O.2   302  PHE302     -0.2867
     94  CB        -2.1870    7.7630   57.2950 C.3   302  PHE302      0.0534
     95  CG        -1.2440    7.0850   56.3350 C.ar  302  PHE302     -0.0203
     96  CD1       -0.2980    7.8190   55.6340 C.ar  302  PHE302     -0.0042
     97  CD2       -1.2570    5.7120   56.1920 C.ar  302  PHE302     -0.0042
     98  CE1        0.6000    7.1830   54.7910 C.ar  302  PHE302     -0.0003
     99  CE2       -0.3600    5.0800   55.3510 C.ar  302  PHE302     -0.0003
    100  CZ         0.5710    5.8150   54.6550 C.ar  302  PHE302     -0.0000
    101  N          1.4130   13.6540   52.5200 N.3   354  LEU354     -0.1245
    102  CA        -0.0370   13.3890   52.3930 C.3   354  LEU354      0.1561
    103  C         -0.8040   14.6500   52.8150 C.2   354  LEU354      0.2260
    104  O         -0.5800   15.1070   53.9430 O.2   354  LEU354     -0.2867
    105  CB        -0.3870   12.1820   53.2570 C.3   354  LEU354      0.0270
    106  CG        -1.7590   11.5820   52.9850 C.3   354  LEU354      0.0019
    107  CD1       -1.8860   11.1850   51.5240 C.3   354  LEU354      0.0001
    108  CD2       -2.0280   10.3890   53.8970 C.3   354  LEU354      0.0001
    109  N         -1.2750   10.5890   42.0860 N.3   381  GLN381     -0.1245
    110  CA        -2.1750    9.5320   42.6030 C.3   381  GLN381      0.1566
    111  C         -1.4160    8.2120   42.4350 C.2   381  GLN381      0.2260
    112  O         -0.3660    8.1910   41.7460 O.2   381  GLN381     -0.2867
    113  CB        -3.5300    9.5690   41.8830 C.3   381  GLN381      0.0367
    114  CG        -4.3620   10.8250   42.1660 C.3   381  GLN381      0.0905
    115  CD        -4.6720   11.0020   43.6370 C.2   381  GLN381      0.2608
    116  OE1       -4.8800   10.0430   44.3820 O.2   381  GLN381     -0.2717
    117  NE2       -4.6950   12.2460   44.0800 N.am  381  GLN381     -0.0878
@<TRIPOS>BOND
     1   112   111    2
     2   113   114    1
     3   113   110    1
     4    17    18    1
     5   109   110    1
     6   114   115    1
     7   111   110    1
     8    18    19    1
     9   115   117   am
    10   115   116    2
    11    19    20    2
    12    11    12    2
    13    11    10    1
    14    47    48    1
    15    47    44    1
    16    16    15    1
    17    14    15    1
    18    14    13    1
    19    66    65    2
    20    46    45    2
    21    10    13    1
    22    10     9    1
    23    48    49    1
    24    44    45    1
    25    44    43    1
    26    62    59    1
    27    24    23    2
    28    65    64    1
    29    53    52    2
    30    49    43    1
    31    59    60    1
    32    59    58    1
    33    63    64    1
    34    63    60   am
    35    43    37   am
    36    67    64    1
    37    67    68    1
    38    67    69    1
    39    28    26    1
    40    25    26    1
    41    25    22    1
    42    60    61    2
    43    52    58   am
    44    52    51    1
    45    23    22    1
    46    23    29   am
    47    21    22    1
    48    37    38    2
    49    37    36    1
    50    26    27    1
    51    50    51    1
    52    30    29    1
    53    30    31    1
    54    30    33    1
    55    35    36    1
    56    35    31   am
    57    51    54    1
    58    36    39    1
    59    31    32    2
    60    33    34    1
    61    41    40   ar
    62    54    55    1
    63     8     6    1
    64     7     6    1
    65     6     5    1
    66    39    40    1
    67    40    42   ar
    68     1     2    1
    69    55    57    1
    70    55    56    1
    71   107   106    1
    72     5     2    1
    73    89    88    1
    74     2     3    1
    75   102   101    1
    76   102   103    1
    77   102   105    1
    78   103   104    2
    79    88    87   ar
    80    88    86   ar
    81    77    75    1
    82   106   105    1
    83   106   108    1
    84    87    85   ar
    85    86    84   ar
    86     3     4    2
    87    75    76    1
    88    75    74    1
    89    85    83   ar
    90    84    83   ar
    91    74    71    1
    92   100    98   ar
    93   100    99   ar
    94    73    72    2
    95    83    82    1
    96    98    96   ar
    97    72    71    1
    98    99    97   ar
    99    71    70    1
   100    96    95   ar
   101    82    79    1
   102    97    95   ar
   103    95    94    1
   104    79    78    1
   105    79    80    1
   106    94    91    1
   107    81    80    2
   108    92    91    1
   109    92    93    2
   110    91    90    1
