@<TRIPOS>MOLECULE
tmp/6q91B00.pdb
 117 111 0 0 0
SMALL
GASTEIGER

@<TRIPOS>ATOM
      1  N         -8.1890  -52.4430  -42.0400 N.3    37  ARG37      -0.1245
      2  CA        -7.5260  -52.7610  -43.3230 C.3    37  ARG37       0.1563
      3  C         -7.7280  -51.6120  -44.3100 C.2    37  ARG37       0.2260
      4  O         -8.7630  -50.9110  -44.2730 O.2    37  ARG37      -0.2867
      5  CB        -8.1360  -54.0500  -43.8670 C.3    37  ARG37       0.0307
      6  CG        -8.5990  -53.8890  -45.2930 C.3    37  ARG37       0.0489
      7  CD        -9.5180  -54.9720  -45.7780 C.3    37  ARG37       0.2205
      8  NE       -10.8880  -54.5490  -46.0450 N.pl3  37  ARG37      -0.0865
      9  CZ       -11.3000  -53.3510  -46.4530 C.cat  37  ARG37       0.5346
     10  NH1      -12.5870  -53.1610  -46.6590 N.pl3  37  ARG37       0.1354
     11  NH2      -10.4660  -52.3550  -46.6770 N.pl3  37  ARG37       0.1354
     12  N         -7.3590  -54.9030  -55.9610 N.3    42  GLY42      -0.1210
     13  CA        -8.1150  -56.1660  -55.9120 C.3    42  GLY42       0.1956
     14  C         -9.5020  -55.9680  -55.3240 C.2    42  GLY42       0.2612
     15  O         -9.9020  -56.7400  -54.4140 O.2    42  GLY42      -0.2717
     16  N        -10.2520  -55.0070  -55.8570 N.am   43  GLU43      -0.1965
     17  CA       -11.5940  -54.6610  -55.3240 C.3    43  GLU43       0.1733
     18  C        -12.6500  -55.4920  -56.0460 C.2    43  GLU43       0.2616
     19  O        -12.6080  -55.5620  -57.2860 O.2    43  GLU43      -0.2715
     20  CB       -11.8760  -53.1660  -55.4330 C.3    43  GLU43       0.0429
     21  CG       -12.4820  -52.6120  -54.1590 C.3    43  GLU43       0.1163
     22  CD       -11.5550  -52.7580  -52.9610 C.2    43  GLU43       0.3649
     23  OE1      -10.6700  -51.8980  -52.8240 O.co2  43  GLU43      -0.2457
     24  OE2      -11.7100  -53.7420  -52.1800 O.co2  43  GLU43      -0.2457
     25  N        -13.5200  -56.1220  -55.2530 N.am   44  HIS44      -0.1973
     26  CA       -14.6630  -56.9670  -55.6680 C.3    44  HIS44       0.1656
     27  C        -14.1280  -58.1240  -56.4960 C.2    44  HIS44       0.2291
     28  O        -14.7880  -58.4980  -57.4690 O.2    44  HIS44      -0.2864
     29  CB       -15.7220  -56.1350  -56.3850 C.3    44  HIS44       0.0771
     30  CG       -16.4270  -55.1710  -55.4970 C.ar   44  HIS44       0.0820
     31  ND1      -17.6510  -55.4530  -54.9410 N.ar   44  HIS44      -0.2267
     32  CD2      -16.1220  -53.9070  -55.1260 C.ar   44  HIS44       0.1154
     33  CE1      -18.0670  -54.4180  -54.2290 C.ar   44  HIS44       0.1986
     34  NE2      -17.1390  -53.4510  -54.3210 N.ar   44  HIS44      -0.2212
     35  N        -12.5620  -60.8470  -54.3980 N.3    46  ASP46      -0.1225
     36  CA       -12.3670  -61.9050  -53.3760 C.3    46  ASP46       0.1805
     37  C        -13.5420  -62.8920  -53.4510 C.2    46  ASP46       0.2597
     38  O        -13.2740  -64.0870  -53.3850 O.2    46  ASP46      -0.2718
     39  CB       -12.0540  -61.3400  -51.9820 C.3    46  ASP46       0.1424
     40  CG       -13.1370  -60.5330  -51.2880 C.2    46  ASP46       0.3668
     41  OD1      -14.0120  -59.9540  -52.0030 O.co2  46  ASP46      -0.2456
     42  OD2      -13.0930  -60.4940  -50.0170 O.co2  46  ASP46      -0.2456
     43  N        -14.7850  -62.4560  -53.6470 N.am   47  TYR47      -0.1976
     44  CA       -15.9240  -63.4120  -53.8090 C.3    47  TYR47       0.1639
     45  C        -15.9400  -63.9560  -55.2420 C.2    47  TYR47       0.2290
     46  O        -16.8620  -64.7500  -55.5480 O.2    47  TYR47      -0.2864
     47  CB       -17.2800  -62.8090  -53.4140 C.3    47  TYR47       0.0560
     48  CG       -17.6180  -61.4640  -54.0060 C.ar   47  TYR47      -0.0198
     49  CD1      -18.1910  -61.3490  -55.2620 C.ar   47  TYR47      -0.0009
     50  CD2      -17.3770  -60.2980  -53.3030 C.ar   47  TYR47      -0.0009
     51  CE1      -18.5190  -60.1110  -55.8030 C.ar   47  TYR47       0.0417
     52  CE2      -17.6600  -59.0550  -53.8470 C.ar   47  TYR47       0.0417
     53  CZ       -18.2440  -58.9520  -55.0940 C.ar   47  TYR47       0.1957
     54  OH       -18.5560  -57.7190  -55.5920 O.3    47  TYR47      -0.2866
     55  N        -20.2870  -62.3170  -39.8450 N.3   174  GLU174     -0.1245
     56  CA       -20.6520  -61.1230  -40.6430 C.3   174  GLU174      0.1567
     57  C        -21.8760  -61.4710  -41.5190 C.2   174  GLU174      0.2260
     58  O        -22.8030  -60.6430  -41.5730 O.2   174  GLU174     -0.2867
     59  CB       -19.4190  -60.6290  -41.4050 C.3   174  GLU174      0.0388
     60  CG       -19.6460  -59.3520  -42.1970 C.3   174  GLU174      0.1160
     61  CD       -19.0730  -58.0570  -41.6430 C.2   174  GLU174      0.3649
     62  OE1      -18.6950  -58.0050  -40.4560 O.co2 174  GLU174     -0.2457
     63  OE2      -19.0240  -57.0880  -42.4170 O.co2 174  GLU174     -0.2457
     64  N        -24.3670  -58.8530  -43.8520 N.3   180  MET180     -0.1245
     65  CA       -23.4830  -58.4700  -44.9960 C.3   180  MET180      0.1570
     66  C        -22.7230  -59.6860  -45.5510 C.2   180  MET180      0.2261
     67  O        -21.7750  -60.1770  -44.9490 O.2   180  MET180     -0.2867
     68  CB       -22.4910  -57.3780  -44.5680 C.3   180  MET180      0.0387
     69  CG       -21.7210  -56.6530  -45.6630 C.3   180  MET180      0.0595
     70  SD       -22.7640  -55.6860  -46.7810 S.3   180  MET180     -0.1393
     71  CE       -22.7070  -54.0670  -45.9910 C.3   180  MET180      0.0692
     72  N        -19.9990  -60.6150  -47.1220 N.3   182  CYS182     -0.1221
     73  CA       -18.6240  -60.2610  -47.5820 C.3   182  CYS182      0.1808
     74  C        -17.9000  -61.4970  -48.1450 C.2   182  CYS182      0.2601
     75  O        -18.4060  -62.6120  -47.9900 O.2   182  CYS182     -0.2717
     76  CB       -17.7900  -59.6780  -46.4470 C.3   182  CYS182      0.0970
     77  SG       -17.7010  -60.7530  -44.9920 S.3   182  CYS182     -0.0800
     78  N        -16.7650  -61.2760  -48.8080 N.am  183  GLY183     -0.1957
     79  CA       -15.7610  -62.3020  -49.1170 C.3   183  GLY183      0.1869
     80  C        -14.7690  -62.4210  -47.9760 C.2   183  GLY183      0.2309
     81  O        -15.0170  -61.8510  -46.8720 O.2   183  GLY183     -0.2863
     82  N        -11.6050  -61.3910  -47.6390 N.3   185  MET185     -0.1230
     83  CA       -10.4460  -60.4640  -47.5390 C.3   185  MET185      0.1702
     84  C        -10.3310  -59.9590  -46.0930 C.2   185  MET185      0.2592
     85  O         -9.3030  -60.2350  -45.4310 O.2   185  MET185     -0.2718
     86  CB       -10.5560  -59.2570  -48.4840 C.3   185  MET185      0.0401
     87  CG        -9.4830  -58.2160  -48.2500 C.3   185  MET185      0.0596
     88  SD        -9.2560  -57.0260  -49.6200 S.3   185  MET185     -0.1393
     89  CE       -10.8590  -56.2290  -49.6380 C.3   185  MET185      0.0692
     90  N        -11.3360  -59.2200  -45.6260 N.am  186  ASP186     -0.1974
     91  CA       -11.1600  -58.3190  -44.4620 C.3   186  ASP186      0.1709
     92  C        -10.7400  -59.1670  -43.2540 C.2   186  ASP186      0.2293
     93  O         -9.8410  -58.7260  -42.5220 O.2   186  ASP186     -0.2864
     94  CB       -12.4220  -57.4980  -44.1870 C.3   186  ASP186      0.1436
     95  CG       -12.8990  -56.6970  -45.3810 C.2   186  ASP186      0.3671
     96  OD1      -12.1200  -56.6020  -46.3650 O.co2 186  ASP186     -0.2456
     97  OD2      -14.0380  -56.1710  -45.3080 O.co2 186  ASP186     -0.2456
     98  N        -24.2110  -54.2390  -52.6960 N.3   236  TYR236     -0.1241
     99  CA       -23.1150  -55.2260  -52.5290 C.3   236  TYR236      0.1605
    100  C        -23.6030  -56.6130  -52.9730 C.2   236  TYR236      0.2264
    101  O        -23.0240  -57.1920  -53.8840 O.2   236  TYR236     -0.2867
    102  CB       -22.5540  -55.1430  -51.1030 C.3   236  TYR236      0.0534
    103  CG       -21.3580  -56.0310  -50.9130 C.ar  236  TYR236     -0.0201
    104  CD1      -20.0940  -55.5870  -51.2680 C.ar  236  TYR236     -0.0009
    105  CD2      -21.5020  -57.3430  -50.4760 C.ar  236  TYR236     -0.0009
    106  CE1      -18.9870  -56.4140  -51.1620 C.ar  236  TYR236      0.0417
    107  CE2      -20.4040  -58.1790  -50.3580 C.ar  236  TYR236      0.0417
    108  CZ       -19.1430  -57.7090  -50.7010 C.ar  236  TYR236      0.1957
    109  OH       -18.0500  -58.5050  -50.5740 O.3   236  TYR236     -0.2866
    110  N        -12.1000  -50.7050  -50.3770 N.3   345  GLY345     -0.1210
    111  CA       -13.2440  -51.4560  -49.8370 C.3   345  GLY345      0.1956
    112  C        -14.4370  -51.3910  -50.7690 C.2   345  GLY345      0.2612
    113  O        -14.2080  -51.2280  -51.9710 O.2   345  GLY345     -0.2717
    114  N        -15.6530  -51.5120  -50.2180 N.am  346  GLY346     -0.1956
    115  CA       -16.9030  -51.8200  -50.9360 C.3   346  GLY346      0.1869
    116  C        -17.3970  -50.7070  -51.8420 C.2   346  GLY346      0.2309
    117  O        -18.1360  -51.0130  -52.7900 O.2   346  GLY346     -0.2863
@<TRIPOS>BOND
     1    28    27    2
     2    19    18    2
     3    27    26    1
     4    29    26    1
     5    29    30    1
     6    18    17    1
     7    18    25   am
     8    12    13    1
     9    13    14    1
    10    16    14   am
    11    16    17    1
    12    51    49   ar
    13    51    53   ar
    14    26    25    1
    15    54    53    1
    16    46    45    2
    17    30    32   ar
    18    30    31   ar
    19    20    17    1
    20    20    21    1
    21    14    15    2
    22    49    48   ar
    23    45    44    1
    24    32    34   ar
    25    53    52   ar
    26    31    33   ar
    27    35    36    1
    28    34    33   ar
    29    21    22    1
    30    48    47    1
    31    48    50   ar
    32   101   100    2
    33    52    50   ar
    34    44    43    1
    35    44    47    1
    36    43    37   am
    37    37    38    2
    38    37    36    1
    39    36    39    1
    40   100    99    1
    41    22    23   ar
    42    22    24   ar
    43   117   116    2
    44    98    99    1
    45    99   102    1
    46    41    40   ar
    47    39    40    1
    48   113   112    2
    49   116   115    1
    50    40    42   ar
    51   104   106   ar
    52   104   103   ar
    53   106   108   ar
    54   102   103    1
    55   115   114    1
    56   103   105   ar
    57   112   114   am
    58   112   111    1
    59   108   109    1
    60   108   107   ar
    61   105   107   ar
    62   110   111    1
    63    89    88    1
    64    88    87    1
    65    79    78    1
    66    79    80    1
    67    78    74   am
    68    86    87    1
    69    86    83    1
    70    74    75    2
    71    74    73    1
    72    80    81    2
    73    82    83    1
    74    73    72    1
    75    73    76    1
    76    83    84    1
    77    70    71    1
    78    70    69    1
    79    11     9    1
    80    10     9    1
    81     9     8    2
    82    76    77    1
    83    96    95   ar
    84    84    90   am
    85    84    85    2
    86     8     7    1
    87     7     6    1
    88    69    68    1
    89    90    91    1
    90    66    65    1
    91    66    67    2
    92    95    97   ar
    93    95    94    1
    94     6     5    1
    95    65    68    1
    96    65    64    1
    97    91    94    1
    98    91    92    1
    99     3     4    2
   100     3     2    1
   101     5     2    1
   102     2     1    1
   103    92    93    2
   104    63    61   ar
   105    60    61    1
   106    60    59    1
   107    61    62   ar
   108    58    57    2
   109    57    56    1
   110    59    56    1
   111    56    55    1
