@<TRIPOS>MOLECULE
tmp/6q91B01.pdb
 149 137 0 0 0
SMALL
GASTEIGER

@<TRIPOS>ATOM
      1  N         -9.0560  -52.5960  -33.1150 N.3    61  THR61      -0.1218
      2  CA       -10.0080  -52.9260  -32.0460 C.3    61  THR61       0.1862
      3  C         -9.2560  -53.7500  -30.9920 C.2    61  THR61       0.2287
      4  O         -8.6080  -54.7760  -31.3540 O.2    61  THR61      -0.2866
      5  CB       -11.1960  -53.7050  -32.6070 C.3    61  THR61       0.1770
      6  OG1      -11.8880  -52.7700  -33.4220 O.3    61  THR61      -0.2211
      7  CG2      -12.1350  -54.2740  -31.5610 C.3    61  THR61       0.0375
      8  N        -18.3470  -51.5870  -24.2740 N.3    77  THR77      -0.1218
      9  CA       -17.5430  -50.8140  -25.2600 C.3    77  THR77       0.1862
     10  C        -17.5500  -49.3350  -24.8800 C.2    77  THR77       0.2287
     11  O        -18.6270  -48.8590  -24.5110 O.2    77  THR77      -0.2866
     12  CB       -18.0880  -50.9620  -26.6820 C.3    77  THR77       0.1770
     13  OG1      -17.4080  -49.9460  -27.4140 O.3    77  THR77      -0.2211
     14  CG2      -19.5890  -50.7930  -26.7820 C.3    77  THR77       0.0375
     15  N        -16.6190  -47.1150  -27.2800 N.3    79  SER79      -0.1217
     16  CA       -16.4560  -46.6070  -28.6670 C.3    79  SER79       0.1889
     17  C        -17.6550  -45.7170  -29.0110 C.2    79  SER79       0.2288
     18  O        -18.7670  -46.2690  -29.0630 O.2    79  SER79      -0.2866
     19  CB       -16.2850  -47.7440  -29.6530 C.3    79  SER79       0.2089
     20  OG       -15.0450  -48.4140  -29.4450 O.3    79  SER79      -0.2183
     21  N        -19.2060  -44.2700  -31.5240 N.3    81  GLY81      -0.1210
     22  CA       -20.1890  -44.5830  -32.5810 C.3    81  GLY81       0.1956
     23  C        -21.1340  -45.7180  -32.2100 C.2    81  GLY81       0.2612
     24  O        -22.2510  -45.7450  -32.7400 O.2    81  GLY81      -0.2717
     25  N        -20.6960  -46.6510  -31.3650 N.am   82  ALA82      -0.1965
     26  CA       -21.4600  -47.8610  -30.9830 C.3    82  ALA82       0.1728
     27  C        -22.8330  -47.4430  -30.4680 C.2    82  ALA82       0.2616
     28  O        -22.9120  -46.4310  -29.7310 O.2    82  ALA82      -0.2715
     29  CB       -20.7070  -48.6540  -29.9450 C.3    82  ALA82       0.0334
     30  N        -23.8670  -48.1940  -30.8550 N.am   83  ASP83      -0.1971
     31  CA       -25.2810  -47.9050  -30.4930 C.3    83  ASP83       0.1709
     32  C        -25.4870  -48.3110  -29.0310 C.2    83  ASP83       0.2293
     33  O        -24.5200  -48.7480  -28.3850 O.2    83  ASP83      -0.2864
     34  CB       -26.2770  -48.5290  -31.4800 C.3    83  ASP83       0.1436
     35  CG       -26.1530  -50.0250  -31.7220 C.2    83  ASP83       0.3671
     36  OD1      -25.0030  -50.5390  -31.7270 O.co2  83  ASP83      -0.2456
     37  OD2      -27.2160  -50.6680  -31.9530 O.co2  83  ASP83      -0.2456
     38  N        -26.6340  -53.4490  -32.2620 N.3   105  ARG105     -0.1231
     39  CA       -26.0770  -53.8920  -33.5670 C.3   105  ARG105      0.1694
     40  C        -24.6060  -54.2980  -33.3670 C.2   105  ARG105      0.2592
     41  O        -24.2100  -55.3580  -33.8840 O.2   105  ARG105     -0.2718
     42  CB       -26.2640  -52.7980  -34.6310 C.3   105  ARG105      0.0321
     43  CG       -27.6370  -52.5860  -35.2170 C.3   105  ARG105      0.0489
     44  CD       -28.0900  -53.8370  -35.8980 C.3   105  ARG105      0.2205
     45  NE       -27.2340  -54.2060  -37.0230 N.pl3 105  ARG105     -0.0865
     46  CZ       -27.3490  -53.7730  -38.2710 C.cat 105  ARG105      0.5346
     47  NH1      -28.3890  -53.0110  -38.5670 N.pl3 105  ARG105      0.1354
     48  NH2      -26.4820  -54.1250  -39.2230 N.pl3 105  ARG105      0.1354
     49  N        -23.8400  -53.5110  -32.6070 N.am  106  TRP106     -0.1976
     50  CA       -22.3790  -53.7060  -32.4170 C.3   106  TRP106      0.1640
     51  C        -22.0920  -55.0660  -31.7620 C.2   106  TRP106      0.2290
     52  O        -21.1420  -55.7630  -32.1990 O.2   106  TRP106     -0.2864
     53  CB       -21.7740  -52.5430  -31.6280 C.3   106  TRP106      0.0576
     54  CG       -22.0880  -52.5460  -30.1630 C.ar  106  TRP106      0.0006
     55  CD1      -23.0350  -51.7970  -29.5330 C.ar  106  TRP106      0.0946
     56  CD2      -21.4300  -53.3080  -29.1300 C.ar  106  TRP106      0.0152
     57  NE1      -23.0170  -52.0360  -28.1870 N.ar  106  TRP106     -0.2442
     58  CE2      -22.0470  -52.9600  -27.9080 C.ar  106  TRP106      0.0810
     59  CE3      -20.3850  -54.2430  -29.1130 C.ar  106  TRP106      0.0012
     60  CZ2      -21.6510  -53.5110  -26.6880 C.ar  106  TRP106      0.0191
     61  CZ3      -19.9980  -54.7890  -27.9070 C.ar  106  TRP106      0.0001
     62  CH2      -20.6190  -54.4210  -26.7110 C.ar  106  TRP106      0.0015
     63  N        -21.4880  -58.7990  -33.7570 N.3   109  TYR109     -0.1241
     64  CA       -20.1970  -59.2500  -34.3320 C.3   109  TYR109      0.1605
     65  C        -19.5560  -60.2290  -33.3560 C.2   109  TYR109      0.2264
     66  O        -19.0330  -61.2460  -33.8060 O.2   109  TYR109     -0.2867
     67  CB       -19.2930  -58.0510  -34.6110 C.3   109  TYR109      0.0534
     68  CG       -19.8540  -57.1300  -35.6600 C.ar  109  TYR109     -0.0201
     69  CD1      -20.1190  -57.5890  -36.9380 C.ar  109  TYR109     -0.0009
     70  CD2      -20.1620  -55.8140  -35.3650 C.ar  109  TYR109     -0.0009
     71  CE1      -20.6680  -56.7600  -37.9020 C.ar  109  TYR109      0.0417
     72  CE2      -20.7040  -54.9690  -36.3190 C.ar  109  TYR109      0.0417
     73  CZ       -20.9580  -55.4450  -37.5920 C.ar  109  TYR109      0.1957
     74  OH       -21.4820  -54.6130  -38.5320 O.3   109  TYR109     -0.2866
     75  N        -14.3830  -53.4630  -24.9100 N.3   129  VAL129     -0.1245
     76  CA       -14.1340  -53.2910  -26.3740 C.3   129  VAL129      0.1561
     77  C        -13.9250  -51.7990  -26.6890 C.2   129  VAL129      0.2260
     78  O        -14.9000  -51.0100  -26.5570 O.2   129  VAL129     -0.2867
     79  CB       -15.3110  -53.8610  -27.1900 C.3   129  VAL129      0.0252
     80  CG1      -15.1620  -53.5520  -28.6620 C.3   129  VAL129      0.0019
     81  CG2      -15.5070  -55.3530  -26.9850 C.3   129  VAL129      0.0019
     82  N        -11.9430  -49.2450  -29.9890 N.3   131  SER131     -0.1217
     83  CA       -11.5500  -49.2840  -31.4180 C.3   131  SER131      0.1889
     84  C        -11.2140  -47.8840  -31.9400 C.2   131  SER131      0.2288
     85  O        -11.9820  -46.9310  -31.6840 O.2   131  SER131     -0.2866
     86  CB       -12.6160  -49.9380  -32.2430 C.3   131  SER131      0.2089
     87  OG       -12.1460  -50.1230  -33.5620 O.3   131  SER131     -0.2183
     88  N        -16.1280  -46.6010  -37.2450 N.3   135  LEU135     -0.1231
     89  CA       -17.2660  -47.5590  -37.3670 C.3   135  LEU135      0.1693
     90  C        -18.0130  -47.2410  -38.6720 C.2   135  LEU135      0.2592
     91  O        -18.4210  -46.0740  -38.8100 O.2   135  LEU135     -0.2718
     92  CB       -18.1670  -47.4380  -36.1280 C.3   135  LEU135      0.0284
     93  CG       -17.5930  -47.9700  -34.8150 C.3   135  LEU135      0.0019
     94  CD1      -18.5520  -47.6350  -33.6980 C.3   135  LEU135      0.0001
     95  CD2      -17.3810  -49.4620  -34.8540 C.3   135  LEU135      0.0001
     96  N        -18.0690  -48.1960  -39.6230 N.am  136  GLY136     -0.1957
     97  CA       -18.6300  -48.0710  -40.9950 C.3   136  GLY136      0.1869
     98  C        -17.9200  -47.1120  -41.9780 C.2   136  GLY136      0.2309
     99  O        -18.6060  -46.6610  -42.9240 O.2   136  GLY136     -0.2863
    100  N        -13.9000  -52.0570  -39.6900 N.3   141  SER141     -0.1202
    101  CA       -14.1260  -52.0270  -38.2260 C.3   141  SER141      0.2020
    102  C        -14.7200  -53.3670  -37.7710 C.2   141  SER141      0.2619
    103  O        -14.2980  -53.8590  -36.7290 O.2   141  SER141     -0.2717
    104  CB       -15.0020  -50.8660  -37.8510 C.3   141  SER141      0.2103
    105  OG       -16.3260  -51.0560  -38.3190 O.3   141  SER141     -0.2182
    106  N        -15.6390  -53.9390  -38.5390 N.am  142  SER142     -0.1951
    107  CA       -16.4360  -55.1290  -38.1620 C.3   142  SER142      0.1924
    108  C        -15.5490  -56.3840  -38.2090 C.2   142  SER142      0.2314
    109  O        -15.6250  -57.2060  -37.2890 O.2   142  SER142     -0.2863
    110  CB       -17.6700  -55.2590  -39.0220 C.3   142  SER142      0.2116
    111  OG       -17.3230  -55.5620  -40.3600 O.3   142  SER142     -0.2180
    112  N        -13.3190  -56.2820  -35.1770 N.3   145  LEU145     -0.1245
    113  CA       -14.0230  -56.6720  -33.9380 C.3   145  LEU145      0.1561
    114  C        -14.1550  -58.1960  -33.8960 C.2   145  LEU145      0.2260
    115  O        -14.0130  -58.7510  -32.8030 O.2   145  LEU145     -0.2867
    116  CB       -15.4020  -56.0100  -33.8870 C.3   145  LEU145      0.0270
    117  CG       -16.2180  -56.3150  -32.6350 C.3   145  LEU145      0.0019
    118  CD1      -15.4090  -56.0910  -31.3690 C.3   145  LEU145      0.0001
    119  CD2      -17.4690  -55.4700  -32.6230 C.3   145  LEU145      0.0001
    120  N        -24.6910  -59.6930  -38.9590 N.3   178  ALA178     -0.1245
    121  CA       -24.6390  -58.2730  -39.3920 C.3   178  ALA178      0.1562
    122  C        -25.2050  -58.0960  -40.8110 C.2   178  ALA178      0.2260
    123  O        -25.0980  -56.9640  -41.3530 O.2   178  ALA178     -0.2867
    124  CB       -23.2230  -57.7590  -39.2930 C.3   178  ALA178      0.0290
    125  N        -24.3670  -58.8530  -43.8520 N.3   180  MET180     -0.1245
    126  CA       -23.4830  -58.4700  -44.9960 C.3   180  MET180      0.1570
    127  C        -22.7230  -59.6860  -45.5510 C.2   180  MET180      0.2261
    128  O        -21.7750  -60.1770  -44.9490 O.2   180  MET180     -0.2867
    129  CB       -22.4910  -57.3780  -44.5680 C.3   180  MET180      0.0387
    130  CG       -21.7210  -56.6530  -45.6630 C.3   180  MET180      0.0595
    131  SD       -22.7640  -55.6860  -46.7810 S.3   180  MET180     -0.1393
    132  CE       -22.7070  -54.0670  -45.9910 C.3   180  MET180      0.0692
    133  N        -21.5440  -42.3770  -46.3130 N.3   228  ARG228     -0.1245
    134  CA       -22.0140  -43.7630  -46.6230 C.3   228  ARG228      0.1563
    135  C        -23.4470  -43.6740  -47.1820 C.2   228  ARG228      0.2260
    136  O        -24.3790  -43.3900  -46.4150 O.2   228  ARG228     -0.2867
    137  CB       -21.9230  -44.7080  -45.4130 C.3   228  ARG228      0.0307
    138  CG       -22.4560  -46.0920  -45.5120 C.3   228  ARG228      0.0489
    139  CD       -22.1930  -46.7610  -44.1540 C.3   228  ARG228      0.2205
    140  NE       -22.6680  -48.1190  -44.2070 N.pl3 228  ARG228     -0.0865
    141  CZ       -22.0940  -49.1870  -44.7370 C.cat 228  ARG228      0.5346
    142  NH1      -20.9030  -49.2110  -45.3160 N.pl3 228  ARG228      0.1354
    143  NH2      -22.7840  -50.3170  -44.6970 N.pl3 228  ARG228      0.1354
    144  N        -25.1290  -51.0470  -48.4720 N.3   233  SER233     -0.1217
    145  CA       -25.4380  -52.4190  -47.9820 C.3   233  SER233      0.1889
    146  C        -26.3570  -53.1380  -48.9900 C.2   233  SER233      0.2288
    147  O        -26.1940  -54.3590  -49.1780 O.2   233  SER233     -0.2866
    148  CB       -25.9880  -52.3900  -46.5620 C.3   233  SER233      0.2089
    149  OG       -27.4060  -52.4570  -46.5450 O.3   233  SER233     -0.2183
@<TRIPOS>BOND
     1   147   146    2
     2   146   145    1
     3   144   145    1
     4   145   148    1
     5   135   134    1
     6   135   136    2
     7   131   132    1
     8   131   130    1
     9   134   133    1
    10   134   137    1
    11   148   149    1
    12   130   129    1
    13   127   126    1
    14   127   128    2
    15   138   137    1
    16   138   139    1
    17   142   141    1
    18   126   129    1
    19   126   125    1
    20   141   143    1
    21   141   140    2
    22   140   139    1
    23    99    98    2
    24    98    97    1
    25   123   122    2
    26    97    96    1
    27   122   121    1
    28   111   110    1
    29   100   101    1
    30    96    90   am
    31   121   124    1
    32   121   120    1
    33    48    46    1
    34   110   107    1
    35    91    90    2
    36    90    89    1
    37    47    46    1
    38   106   107    1
    39   106   102   am
    40    74    73    1
    41   105   104    1
    42    46    45    2
    43   101   104    1
    44   101   102    1
    45   108   107    1
    46   108   109    2
    47    71    73   ar
    48    71    69   ar
    49   102   103    2
    50    73    72   ar
    51    89    88    1
    52    89    92    1
    53    45    44    1
    54    69    68   ar
    55    72    70   ar
    56    92    93    1
    57    44    43    1
    58    68    70   ar
    59    68    67    1
    60    43    42    1
    61   112   113    1
    62    95    93    1
    63    93    94    1
    64    42    39    1
    65    67    64    1
    66    64    63    1
    67    64    65    1
    68   113   114    1
    69   113   116    1
    70   114   115    2
    71   116   117    1
    72    41    40    2
    73    66    65    2
    74    39    40    1
    75    39    38    1
    76    87    86    1
    77     6     5    1
    78    40    49   am
    79     1     2    1
    80    24    23    2
    81   117   119    1
    82   117   118    1
    83     5     2    1
    84     5     7    1
    85    49    50    1
    86    22    23    1
    87    22    21    1
    88    50    51    1
    89    50    53    1
    90    86    83    1
    91    23    25   am
    92    52    51    2
    93     2     3    1
    94    37    35   ar
    95    84    85    2
    96    84    83    1
    97    36    35   ar
    98    35    34    1
    99    53    54    1
   100    34    31    1
   101    83    82    1
   102    25    26    1
   103     4     3    2
   104    26    27    1
   105    26    29    1
   106    30    31    1
   107    30    27   am
   108    31    32    1
   109    27    28    2
   110    54    55   ar
   111    54    56   ar
   112    19    20    1
   113    19    16    1
   114    55    57   ar
   115    56    59   ar
   116    56    58   ar
   117    59    61   ar
   118    18    17    2
   119    32    33    2
   120    17    16    1
   121    16    15    1
   122    80    79    1
   123    57    58   ar
   124    58    60   ar
   125    61    62   ar
   126    13    12    1
   127    79    81    1
   128    79    76    1
   129    14    12    1
   130    62    60   ar
   131    77    78    2
   132    77    76    1
   133    12     9    1
   134    76    75    1
   135     9    10    1
   136     9     8    1
   137    10    11    2
