@<TRIPOS>MOLECULE
tmp/6q91B02.pdb
 134 127 0 0 0
SMALL
GASTEIGER

@<TRIPOS>ATOM
      1  N         -5.0960  -52.4360  -51.1340 N.3    40  LEU40      -0.1245
      2  CA        -4.2590  -51.5730  -51.9910 C.3    40  LEU40       0.1561
      3  C         -4.8430  -51.6730  -53.4020 C.2    40  LEU40       0.2260
      4  O         -4.9700  -50.6200  -54.0540 O.2    40  LEU40      -0.2867
      5  CB        -2.7810  -51.9680  -51.8870 C.3    40  LEU40       0.0270
      6  CG        -2.1110  -51.7300  -50.5240 C.3    40  LEU40       0.0019
      7  CD1       -0.6930  -52.2900  -50.5140 C.3    40  LEU40       0.0001
      8  CD2       -2.0710  -50.2550  -50.1850 C.3    40  LEU40       0.0001
      9  N         -3.3470  -54.4580  -46.8720 N.3    55  MET55      -0.1245
     10  CA        -2.3780  -54.2980  -45.7730 C.3    55  MET55       0.1570
     11  C         -3.1580  -53.8580  -44.5440 C.2    55  MET55       0.2261
     12  O         -4.1540  -53.1150  -44.6930 O.2    55  MET55      -0.2867
     13  CB        -1.2780  -53.2880  -46.1180 C.3    55  MET55       0.0387
     14  CG        -1.6820  -51.8450  -45.9240 C.3    55  MET55       0.0595
     15  SD        -0.2690  -50.7460  -46.1700 S.3    55  MET55      -0.1393
     16  CE        -0.9160  -49.2610  -45.3990 C.3    55  MET55       0.0692
     17  N          6.4470  -54.2220  -47.7120 N.3   213  LEU213     -0.1231
     18  CA         6.2360  -52.7760  -47.9880 C.3   213  LEU213      0.1693
     19  C          7.3150  -51.9650  -47.2830 C.2   213  LEU213      0.2593
     20  O          6.9640  -51.1880  -46.4210 O.2   213  LEU213     -0.2718
     21  CB         4.8690  -52.3360  -47.4640 C.3   213  LEU213      0.0284
     22  CG         3.6670  -52.9270  -48.1750 C.3   213  LEU213      0.0019
     23  CD1        2.4210  -52.1590  -47.7990 C.3   213  LEU213      0.0001
     24  CD2        3.8550  -52.8910  -49.6790 C.3   213  LEU213      0.0001
     25  N          8.5770  -52.1370  -47.6420 N.am  214  SER214     -0.1938
     26  CA         9.7170  -51.5660  -46.8840 C.3   214  SER214      0.2055
     27  C         10.4170  -50.5070  -47.7370 C.2   214  SER214      0.2643
     28  O         11.5110  -50.7990  -48.2330 O.2   214  SER214     -0.2714
     29  CB        10.6690  -52.6590  -46.4540 C.3   214  SER214      0.2130
     30  OG        11.2770  -53.2640  -47.5850 O.3   214  SER214     -0.2179
     31  N          9.8050  -49.3320  -47.9050 N.am  215  ASP215     -0.1971
     32  CA        10.4760  -48.1620  -48.5370 C.3   215  ASP215      0.1709
     33  C         10.1700  -46.9030  -47.7310 C.2   215  ASP215      0.2293
     34  O          9.0640  -46.3750  -47.7580 O.2   215  ASP215     -0.2864
     35  CB        10.1020  -47.9930  -50.0110 C.3   215  ASP215      0.1436
     36  CG        10.9780  -46.9840  -50.7420 C.2   215  ASP215      0.3671
     37  OD1       11.2670  -45.9040  -50.1710 O.co2 215  ASP215     -0.2456
     38  OD2       11.3680  -47.2880  -51.8760 O.co2 215  ASP215     -0.2456
     39  N          8.4030  -43.6130  -49.4060 N.3   218  LEU218     -0.1231
     40  CA         6.9950  -43.7080  -49.8830 C.3   218  LEU218      0.1693
     41  C          6.0830  -43.6390  -48.6680 C.2   218  LEU218      0.2592
     42  O          6.6030  -43.8280  -47.5610 O.2   218  LEU218     -0.2718
     43  CB         6.7700  -45.0160  -50.6620 C.3   218  LEU218      0.0284
     44  CG         7.4980  -45.1230  -52.0040 C.3   218  LEU218      0.0019
     45  CD1        7.3600  -46.5080  -52.6360 C.3   218  LEU218      0.0001
     46  CD2        6.9860  -44.0600  -52.9600 C.3   218  LEU218      0.0001
     47  N          4.7840  -43.4280  -48.9010 N.am  219  ALA219     -0.1966
     48  CA         3.7100  -43.4630  -47.8870 C.3   219  ALA219      0.1728
     49  C          2.3970  -43.9860  -48.4760 C.2   219  ALA219      0.2616
     50  O          2.2430  -43.9900  -49.6980 O.2   219  ALA219     -0.2715
     51  CB         3.5250  -42.0790  -47.3270 C.3   219  ALA219      0.0334
     52  N          1.4600  -44.3670  -47.6090 N.am  220  VAL220     -0.1977
     53  CA         0.0640  -44.7090  -47.9910 C.3   220  VAL220      0.1596
     54  C         -0.9010  -43.8310  -47.1850 C.2   220  VAL220      0.2287
     55  O         -0.9360  -43.9540  -45.9250 O.2   220  VAL220     -0.2864
     56  CB        -0.2370  -46.2010  -47.8090 C.3   220  VAL220      0.0276
     57  CG1       -1.6640  -46.5150  -48.1960 C.3   220  VAL220      0.0022
     58  CG2        0.7020  -47.0520  -48.6260 C.3   220  VAL220      0.0022
     59  N          4.8830  -55.3500  -59.5160 N.3   294  ALA294     -0.1231
     60  CA         5.4610  -53.9900  -59.4960 C.3   294  ALA294      0.1694
     61  C          6.0200  -53.7200  -58.0950 C.2   294  ALA294      0.2591
     62  O          7.1130  -53.1180  -57.9640 O.2   294  ALA294     -0.2718
     63  CB         4.4270  -52.9640  -59.9000 C.3   294  ALA294      0.0304
     64  N          5.2970  -54.1560  -57.0730 N.am  295  LEU295     -0.1980
     65  CA         5.7390  -54.0090  -55.6720 C.3   295  LEU295      0.1596
     66  C          7.1110  -54.6910  -55.5310 C.2   295  LEU295      0.2287
     67  O          8.0440  -53.9850  -55.1530 O.2   295  LEU295     -0.2864
     68  CB         4.6610  -54.6080  -54.7680 C.3   295  LEU295      0.0297
     69  CG         5.0050  -54.6730  -53.2890 C.3   295  LEU295      0.0022
     70  CD1        5.4970  -53.3120  -52.8150 C.3   295  LEU295      0.0001
     71  CD2        3.7990  -55.1770  -52.5100 C.3   295  LEU295      0.0001
     72  N          9.9850  -52.8250  -57.0440 N.3   298  GLY298     -0.1210
     73  CA        10.1630  -51.4710  -56.4790 C.3   298  GLY298      0.1956
     74  C          9.6300  -50.3810  -57.3950 C.2   298  GLY298      0.2612
     75  O         10.1220  -49.2320  -57.3100 O.2   298  GLY298     -0.2717
     76  N          8.6200  -50.6920  -58.2060 N.am  299  ASP299     -0.1959
     77  CA         8.0630  -49.7480  -59.2100 C.3   299  ASP299      0.1840
     78  C          6.7560  -49.1300  -58.6830 C.2   299  ASP299      0.2622
     79  O          5.6690  -49.6490  -58.9700 O.2   299  ASP299     -0.2715
     80  CB         7.9200  -50.4310  -60.5710 C.3   299  ASP299      0.1450
     81  CG         7.6920  -49.4540  -61.7090 C.2   299  ASP299      0.3671
     82  OD1        7.6930  -48.2170  -61.4660 O.co2 299  ASP299     -0.2456
     83  OD2        7.5220  -49.9390  -62.8150 O.co2 299  ASP299     -0.2456
     84  N          6.9040  -48.0250  -57.9660 N.am  300  TYR300     -0.1974
     85  CA         5.8240  -47.2340  -57.3270 C.3   300  TYR300      0.1639
     86  C          4.9740  -46.5490  -58.3950 C.2   300  TYR300      0.2290
     87  O          3.7690  -46.3330  -58.1660 O.2   300  TYR300     -0.2864
     88  CB         6.3930  -46.1950  -56.3510 C.3   300  TYR300      0.0560
     89  CG         7.6710  -45.4850  -56.7340 C.ar  300  TYR300     -0.0198
     90  CD1        8.9080  -46.0440  -56.4390 C.ar  300  TYR300     -0.0009
     91  CD2        7.6600  -44.2120  -57.2820 C.ar  300  TYR300     -0.0009
     92  CE1       10.0940  -45.3830  -56.7130 C.ar  300  TYR300      0.0417
     93  CE2        8.8400  -43.5340  -57.5620 C.ar  300  TYR300      0.0417
     94  CZ        10.0600  -44.1260  -57.2800 C.ar  300  TYR300      0.1957
     95  OH        11.2390  -43.5040  -57.5580 O.3   300  TYR300     -0.2866
     96  N          2.7320  -49.1870  -59.9030 N.3   303  PHE303     -0.1241
     97  CA         1.7860  -49.6420  -58.8570 C.3   303  PHE303      0.1605
     98  C          0.7100  -48.5540  -58.8030 C.2   303  PHE303      0.2264
     99  O         -0.5060  -48.8460  -58.9090 O.2   303  PHE303     -0.2867
    100  CB         2.5220  -49.9020  -57.5330 C.3   303  PHE303      0.0534
    101  CG         1.6680  -50.5440  -56.4700 C.ar  303  PHE303     -0.0203
    102  CD1        0.6910  -49.8180  -55.8020 C.ar  303  PHE303     -0.0042
    103  CD2        1.8000  -51.8950  -56.1900 C.ar  303  PHE303     -0.0042
    104  CE1       -0.1350  -50.4460  -54.8810 C.ar  303  PHE303     -0.0003
    105  CE2        0.9770  -52.5170  -55.2660 C.ar  303  PHE303     -0.0003
    106  CZ         0.0150  -51.7930  -54.6120 C.ar  303  PHE303     -0.0000
    107  N         -0.9510  -43.8170  -52.8660 N.3   355  LEU355     -0.1245
    108  CA         0.5060  -44.0680  -52.8000 C.3   355  LEU355      0.1561
    109  C          1.2110  -42.7630  -53.1730 C.2   355  LEU355      0.2260
    110  O          0.8470  -42.2120  -54.1940 O.2   355  LEU355     -0.2867
    111  CB         0.8580  -45.1960  -53.7700 C.3   355  LEU355      0.0270
    112  CG         2.3320  -45.5970  -53.7830 C.3   355  LEU355      0.0019
    113  CD1        2.7490  -46.2350  -52.4560 C.3   355  LEU355      0.0001
    114  CD2        2.6230  -46.5290  -54.9320 C.3   355  LEU355      0.0001
    115  N         -0.6500  -44.4960  -43.0030 N.3   381  SER381     -0.1202
    116  CA        -0.3350  -45.8370  -42.4630 C.3   381  SER381      0.2020
    117  C          0.9110  -46.4070  -43.1180 C.2   381  SER381      0.2619
    118  O          1.0760  -46.2770  -44.3580 O.2   381  SER381     -0.2717
    119  CB        -1.4890  -46.7600  -42.5950 C.3   381  SER381      0.2103
    120  OG        -1.5850  -47.5840  -41.4380 O.3   381  SER381     -0.2182
    121  N          1.7780  -46.9780  -42.2900 N.am  382  GLN382     -0.1965
    122  CA         2.6990  -48.0450  -42.7400 C.3   382  GLN382      0.1733
    123  C          1.9250  -49.3430  -42.5120 C.2   382  GLN382      0.2616
    124  O          0.7840  -49.2780  -41.9900 O.2   382  GLN382     -0.2715
    125  CB         4.0450  -47.9010  -42.0480 C.3   382  GLN382      0.0408
    126  CG         4.6230  -46.5010  -42.1940 C.3   382  GLN382      0.0908
    127  CD         6.0300  -46.4680  -41.6550 C.2   382  GLN382      0.2608
    128  OE1        6.2710  -46.7620  -40.4770 O.2   382  GLN382     -0.2717
    129  NE2        6.9760  -46.1580  -42.5320 N.am  382  GLN382     -0.0878
    130  N          2.4380  -50.4700  -42.9750 N.am  383  ALA383     -0.1977
    131  CA         1.7020  -51.7400  -42.8500 C.3   383  ALA383      0.1597
    132  C          1.7370  -52.1070  -41.3670 C.2   383  ALA383      0.2287
    133  O          2.8270  -52.0130  -40.7940 O.2   383  ALA383     -0.2864
    134  CB         2.3370  -52.7980  -43.7250 C.3   383  ALA383      0.0319
@<TRIPOS>BOND
     1    83    81   ar
     2    81    82   ar
     3    81    80    1
     4    80    77    1
     5    96    97    1
     6    63    60    1
     7    59    60    1
     8    60    61    1
     9    77    78    1
    10    77    76    1
    11    79    78    2
    12    99    98    2
    13    97    98    1
    14    97   100    1
    15    78    84   am
    16    86    87    2
    17    86    85    1
    18    76    74   am
    19    61    62    2
    20    61    64   am
    21    84    85    1
    22    93    91   ar
    23    93    94   ar
    24    95    94    1
    25   100   101    1
    26    74    75    2
    27    74    73    1
    28    85    88    1
    29    91    89   ar
    30    94    92   ar
    31    64    65    1
    32    72    73    1
    33    89    90   ar
    34    89    88    1
    35    92    90   ar
    36   101   103   ar
    37   101   102   ar
    38   103   105   ar
    39   102   104   ar
    40    65    66    1
    41    65    68    1
    42    66    67    2
    43   105   106   ar
    44   114   112    1
    45   104   106   ar
    46    68    69    1
    47   110   109    2
    48     4     3    2
    49   112   111    1
    50   112   113    1
    51   111   108    1
    52     3     2    1
    53    69    70    1
    54    69    71    1
    55   109   108    1
    56    46    44    1
    57   107   108    1
    58    45    44    1
    59    44    43    1
    60     2     5    1
    61     2     1    1
    62     5     6    1
    63    38    36   ar
    64    36    37   ar
    65    36    35    1
    66    43    40    1
    67     6     7    1
    68     6     8    1
    69    35    32    1
    70    40    39    1
    71    40    41    1
    72    50    49    2
    73    24    22    1
    74    47    41   am
    75    47    48    1
    76    41    42    2
    77    58    56    1
    78    32    31    1
    79    32    33    1
    80    49    48    1
    81    49    52   am
    82    28    27    2
    83    57    56    1
    84    22    23    1
    85    22    21    1
    86    53    56    1
    87    53    52    1
    88    53    54    1
    89    18    17    1
    90    18    21    1
    91    18    19    1
    92    31    27   am
    93    48    51    1
    94    34    33    2
    95    27    26    1
    96    25    19   am
    97    25    26    1
    98    30    29    1
    99    19    20    2
   100    54    55    2
   101    26    29    1
   102     9    10    1
   103    15    14    1
   104    15    16    1
   105    13    14    1
   106    13    10    1
   107    10    11    1
   108    12    11    2
   109   118   117    2
   110   134   131    1
   111   117   116    1
   112   117   121   am
   113   115   116    1
   114   130   131    1
   115   130   123   am
   116   131   132    1
   117   122   123    1
   118   122   121    1
   119   122   125    1
   120   119   116    1
   121   119   120    1
   122   129   127   am
   123   123   124    2
   124   126   125    1
   125   126   127    1
   126   127   128    2
   127   132   133    2
