@<TRIPOS>MOLECULE
tmp/6qaiA00.pdb
 78 72 0 0 0
SMALL
GASTEIGER

@<TRIPOS>ATOM
      1  N        -26.9210   -2.8810   86.1610 N.3    11  ALA11      -0.1231
      2  CA       -27.0250   -2.0020   87.3180 C.3    11  ALA11       0.1694
      3  C        -25.6850   -1.3580   87.6550 C.2    11  ALA11       0.2592
      4  O        -24.6310   -1.9850   87.5470 O.2    11  ALA11      -0.2718
      5  CB       -27.5340   -2.7850   88.5330 C.3    11  ALA11       0.0304
      6  N        -25.7380   -0.1110   88.0950 N.am   12  GLY12      -0.1957
      7  CA       -24.5350    0.5580   88.5530 C.3    12  GLY12       0.1869
      8  C        -24.5500    2.0460   88.2700 C.2    12  GLY12       0.2309
      9  O        -25.4510    2.5830   87.5960 O.2    12  GLY12      -0.2863
     10  N        -25.0460    5.6940   85.1560 N.3    15  VAL15      -0.1231
     11  CA       -25.9870    6.7790   84.9070 C.3    15  VAL15       0.1692
     12  C        -25.4560    8.1280   85.3770 C.2    15  VAL15       0.2592
     13  O        -25.8950    9.1710   84.8750 O.2    15  VAL15      -0.2718
     14  CB       -27.3570    6.4800   85.5540 C.3    15  VAL15       0.0266
     15  CG1      -27.8440    5.1180   85.1210 C.3    15  VAL15       0.0020
     16  CG2      -27.2640    6.5430   87.0730 C.3    15  VAL15       0.0020
     17  N        -24.5160    8.1480   86.3250 N.am   16  PHE16      -0.1976
     18  CA       -23.9690    9.4040   86.8330 C.3    16  PHE16       0.1639
     19  C        -22.7230    9.8670   86.0730 C.2    16  PHE16       0.2290
     20  O        -22.1490   10.9040   86.4260 O.2    16  PHE16      -0.2864
     21  CB       -23.6610    9.2730   88.3350 C.3    16  PHE16       0.0560
     22  CG       -24.8100    8.7280   89.1390 C.ar   16  PHE16      -0.0200
     23  CD1      -25.9930    9.4420   89.2510 C.ar   16  PHE16      -0.0042
     24  CD2      -24.7180    7.4940   89.7610 C.ar   16  PHE16      -0.0042
     25  CE1      -27.0610    8.9380   89.9780 C.ar   16  PHE16      -0.0003
     26  CE2      -25.7820    6.9810   90.4860 C.ar   16  PHE16      -0.0003
     27  CZ       -26.9540    7.7050   90.5940 C.ar   16  PHE16      -0.0000
     28  N        -30.7660    0.8680   82.7860 N.3    42  PRO42      -0.2116
     29  CA       -31.5540    1.7210   83.6780 C.3    42  PRO42       0.1372
     30  C        -32.1190    2.9230   82.9550 C.2    42  PRO42       0.2244
     31  O        -31.5030    3.4780   82.0420 O.2    42  PRO42      -0.2868
     32  CB       -30.5490    2.1580   84.7470 C.3    42  PRO42       0.0268
     33  CG       -29.5400    1.0970   84.7640 C.3    42  PRO42       0.0207
     34  CD       -29.4240    0.6070   83.3340 C.3    42  PRO42       0.0892
     35  N        -32.6420    5.8420   83.9910 N.3    44  ASP44      -0.1239
     36  CA       -32.2970    7.0130   84.7840 C.3    44  ASP44       0.1674
     37  C        -32.3140    8.2770   83.9270 C.2    44  ASP44       0.2266
     38  O        -32.5130    9.3830   84.4440 O.2    44  ASP44      -0.2867
     39  CB       -30.9230    6.7960   85.4550 C.3    44  ASP44       0.1410
     40  CG       -31.0140    6.2190   86.9060 C.2    44  ASP44       0.3668
     41  OD1      -30.5520    5.0660   87.2290 O.co2  44  ASP44      -0.2456
     42  OD2      -31.5480    6.9610   87.7520 O.co2  44  ASP44      -0.2456
     43  N        -37.1580    1.2360   86.5240 N.3    57  ASN57      -0.1240
     44  CA       -36.0360    0.3640   86.8370 C.3    57  ASN57       0.1653
     45  C        -36.5170   -0.9220   87.4880 C.2    57  ASN57       0.2266
     46  O        -36.0180   -2.0080   87.1700 O.2    57  ASN57      -0.2867
     47  CB       -35.0390    1.0850   87.7400 C.3    57  ASN57       0.1155
     48  CG       -34.3090    2.1980   87.0210 C.2    57  ASN57       0.2627
     49  OD1      -34.3820    2.3070   85.7980 O.2    57  ASN57      -0.2716
     50  ND2      -33.6190    3.0420   87.7750 N.am   57  ASN57      -0.0877
     51  N        -22.2930    2.0790   95.3220 N.3    80  ASP80      -0.1239
     52  CA       -23.4620    2.9320   95.1550 C.3    80  ASP80       0.1674
     53  C        -24.6790    2.2930   95.8170 C.2    80  ASP80       0.2266
     54  O        -24.9930    1.1360   95.5370 O.2    80  ASP80      -0.2867
     55  CB       -23.7390    3.1240   93.6610 C.3    80  ASP80       0.1410
     56  CG       -25.1110    3.7220   93.3840 C.2    80  ASP80       0.3668
     57  OD1      -25.5240    4.6440   94.0950 O.co2  80  ASP80      -0.2456
     58  OD2      -25.7720    3.2680   92.4230 O.co2  80  ASP80      -0.2456
     59  N        -27.8130    2.9370   95.3930 N.3    82  GLY82      -0.1210
     60  CA       -28.8710    2.6300   94.4420 C.3    82  GLY82       0.1956
     61  C        -28.6890    1.2690   93.7990 C.2    82  GLY82       0.2612
     62  O        -29.6440    0.4940   93.6610 O.2    82  GLY82      -0.2717
     63  N        -27.4610    0.9580   93.4050 N.am   83  THR83      -0.1952
     64  CA       -27.1430   -0.3610   92.8830 C.3    83  THR83       0.1897
     65  C        -27.3550   -1.4330   93.9410 C.2    83  THR83       0.2313
     66  O        -27.8760   -2.5110   93.6510 O.2    83  THR83      -0.2863
     67  CB       -25.6960   -0.3360   92.3870 C.3    83  THR83       0.1794
     68  OG1      -25.5570    0.7510   91.4600 O.3    83  THR83      -0.2208
     69  CG2      -25.2980   -1.6330   91.7210 C.3    83  THR83       0.0378
     70  N        -30.9380   -2.3090   94.1630 N.3    86  GLU86      -0.1245
     71  CA       -31.3810   -3.1150   93.0270 C.3    86  GLU86       0.1567
     72  C        -30.9150   -4.5530   93.1650 C.2    86  GLU86       0.2260
     73  O        -31.6340   -5.4890   92.8010 O.2    86  GLU86      -0.2867
     74  CB       -30.8700   -2.4860   91.7390 C.3    86  GLU86       0.0388
     75  CG       -31.4710   -1.0980   91.4890 C.3    86  GLU86       0.1160
     76  CD       -30.8780   -0.4190   90.2840 C.2    86  GLU86       0.3649
     77  OE1      -29.6600   -0.5890   90.0490 O.co2  86  GLU86      -0.2457
     78  OE2      -31.6170    0.3180   89.5910 O.co2  86  GLU86      -0.2457
@<TRIPOS>BOND
     1    31    30    2
     2    28    34    1
     3    28    29    1
     4    30    29    1
     5    34    33    1
     6    29    32    1
     7    37    38    2
     8    37    36    1
     9    35    36    1
    10    32    33    1
    11    36    39    1
    12    13    12    2
    13    11    10    1
    14    11    12    1
    15    11    14    1
    16    15    14    1
    17    12    17   am
    18    39    40    1
    19    14    16    1
    20    49    48    2
    21    19    20    2
    22    19    18    1
    23     1     2    1
    24    17    18    1
    25    43    44    1
    26    18    21    1
    27    44    45    1
    28    44    47    1
    29    40    41   ar
    30    40    42   ar
    31    48    47    1
    32    48    50   am
    33    46    45    2
    34     2     3    1
    35     2     5    1
    36     4     3    2
    37     9     8    2
    38     3     6   am
    39     6     7    1
    40     8     7    1
    41    21    22    1
    42    22    23   ar
    43    22    24   ar
    44    23    25   ar
    45    78    76   ar
    46    24    26   ar
    47    25    27   ar
    48    77    76   ar
    49    76    75    1
    50    26    27   ar
    51    68    67    1
    52    75    74    1
    53    69    67    1
    54    74    71    1
    55    67    64    1
    56    58    56   ar
    57    73    72    2
    58    64    63    1
    59    64    65    1
    60    71    72    1
    61    71    70    1
    62    56    55    1
    63    56    57   ar
    64    63    61   am
    65    66    65    2
    66    62    61    2
    67    55    52    1
    68    61    60    1
    69    60    59    1
    70    52    51    1
    71    52    53    1
    72    54    53    2
