@<TRIPOS>MOLECULE
tmp/6qasA01.pdb
 183 173 0 0 0
SMALL
GASTEIGER

@<TRIPOS>ATOM
      1  N          0.9690   23.6200   46.5900 N.3    13  ASP13      -0.1225
      2  CA         0.4490   23.9950   45.2450 C.3    13  ASP13       0.1805
      3  C         -0.5230   25.1660   45.4020 C.2    13  ASP13       0.2598
      4  O         -1.6660   25.1050   44.9010 O.2    13  ASP13      -0.2718
      5  CB        -0.1270   22.7730   44.5370 C.3    13  ASP13       0.1424
      6  CG         0.9620   21.7500   44.2350 C.2    13  ASP13       0.3668
      7  OD1        2.0500   22.1910   43.8740 O.co2  13  ASP13      -0.2456
      8  OD2        0.7520   20.5590   44.5020 O.co2  13  ASP13      -0.2456
      9  N         -0.0520   26.2360   46.0010 N.am   14  LEU14      -0.1966
     10  CA        -0.8790   27.4320   46.2340 C.3    14  LEU14       0.1728
     11  C         -1.1260   28.1110   44.8930 C.2    14  LEU14       0.2616
     12  O         -0.1580   28.3660   44.1920 O.2    14  LEU14      -0.2715
     13  CB        -0.1360   28.3590   47.1950 C.3    14  LEU14       0.0311
     14  CG        -0.8130   29.6920   47.4630 C.3    14  LEU14       0.0022
     15  CD1       -2.0100   29.4960   48.3590 C.3    14  LEU14       0.0001
     16  CD2        0.1690   30.6770   48.0750 C.3    14  LEU14       0.0001
     17  N         -2.3740   28.3950   44.5350 N.am   15  ILE15      -0.1963
     18  CA        -2.6520   29.1740   43.3020 C.3    15  ILE15       0.1727
     19  C         -3.2160   30.5440   43.6320 C.2    15  ILE15       0.2617
     20  O         -3.1680   31.4180   42.7580 O.2    15  ILE15      -0.2715
     21  CB        -3.5170   28.3670   42.3380 C.3    15  ILE15       0.0290
     22  CG1       -4.8560   27.9480   42.9360 C.3    15  ILE15       0.0022
     23  CG2       -2.7320   27.1730   41.8660 C.3    15  ILE15       0.0023
     24  CD1       -5.7080   27.1380   41.9640 C.3    15  ILE15       0.0001
     25  N         -3.7080   30.7550   44.8380 N.am   16  GLY16      -0.1940
     26  CA        -4.1790   32.0780   45.2330 C.3    16  GLY16       0.2014
     27  C         -4.4480   32.1910   46.7040 C.2    16  GLY16       0.2638
     28  O         -4.7250   31.2100   47.3260 O.2    16  GLY16      -0.2714
     29  N         -4.3470   33.4080   47.2070 N.am   17  HIS17      -0.1973
     30  CA        -4.3610   33.7810   48.6430 C.3    17  HIS17       0.1656
     31  C         -5.1270   35.0990   48.7350 C.2    17  HIS17       0.2291
     32  O         -4.8740   35.9610   47.8900 O.2    17  HIS17      -0.2864
     33  CB        -2.9030   33.8760   49.1330 C.3    17  HIS17       0.0771
     34  CG        -2.7450   34.1140   50.5960 C.ar   17  HIS17       0.0820
     35  ND1       -2.7770   35.3850   51.1550 N.ar   17  HIS17      -0.2267
     36  CD2       -2.5140   33.2530   51.6230 C.ar   17  HIS17       0.1154
     37  CE1       -2.6230   35.2910   52.4670 C.ar   17  HIS17       0.1986
     38  NE2       -2.4620   33.9920   52.7830 N.ar   17  HIS17      -0.2212
     39  N         -6.3390   29.1010   48.2430 N.3    23  VAL23      -0.1245
     40  CA        -6.7380   28.1650   47.1620 C.3    23  VAL23       0.1561
     41  C         -5.5180   27.3900   46.7070 C.2    23  VAL23       0.2260
     42  O         -4.5470   27.9990   46.3280 O.2    23  VAL23      -0.2867
     43  CB        -7.4260   28.8790   46.0000 C.3    23  VAL23       0.0252
     44  CG1       -7.9750   27.8600   44.9950 C.3    23  VAL23       0.0019
     45  CG2       -8.5250   29.8060   46.4950 C.3    23  VAL23       0.0019
     46  N         -4.1760   24.0750   44.1350 N.3    25  LYS25      -0.1245
     47  CA        -4.4560   23.1520   43.0410 C.3    25  LYS25       0.1561
     48  C         -4.4290   21.7520   43.6210 C.2    25  LYS25       0.2260
     49  O         -3.5530   21.4540   44.4470 O.2    25  LYS25      -0.2867
     50  CB        -3.4640   23.3470   41.8920 C.3    25  LYS25       0.0271
     51  CG        -3.7730   22.4900   40.6980 C.3    25  LYS25       0.0035
     52  CD        -2.8930   22.7580   39.4980 C.3    25  LYS25       0.0206
     53  CE        -3.1860   21.7730   38.3820 C.3    25  LYS25       0.1093
     54  NZ        -2.3810   22.0500   37.1930 N.3    25  LYS25      -0.1314
     55  N         -9.5000   23.0650   42.1090 N.3    37  ALA37      -0.1245
     56  CA        -9.0390   24.1700   42.9430 C.3    37  ALA37       0.1562
     57  C         -9.6880   23.9480   44.3040 C.2    37  ALA37       0.2260
     58  O        -10.9010   23.7770   44.3430 O.2    37  ALA37      -0.2867
     59  CB        -9.4490   25.4980   42.3400 C.3    37  ALA37       0.0290
     60  N        -10.5310   25.4160   47.7720 N.3    39  LYS39      -0.1245
     61  CA       -10.5800   26.6520   48.5770 C.3    39  LYS39       0.1561
     62  C        -10.7240   26.3240   50.0700 C.2    39  LYS39       0.2260
     63  O        -11.5770   25.4870   50.4460 O.2    39  LYS39      -0.2867
     64  CB       -11.7530   27.4970   48.0850 C.3    39  LYS39       0.0271
     65  CG       -11.7950   28.8890   48.6260 C.3    39  LYS39       0.0035
     66  CD       -12.8480   29.6130   47.7970 C.3    39  LYS39       0.0206
     67  CE       -12.4780   30.9600   47.3480 C.3    39  LYS39       0.1093
     68  NZ       -13.6950   31.6170   46.8640 N.3    39  LYS39      -0.1314
     69  N        -17.9230   29.0730   37.9820 N.3    69  VAL69      -0.1245
     70  CA       -16.9420   28.0340   38.3850 C.3    69  VAL69       0.1561
     71  C        -17.7200   26.9310   39.1180 C.2    69  VAL69       0.2260
     72  O        -18.5770   27.2340   39.9820 O.2    69  VAL69      -0.2867
     73  CB       -15.7630   28.5710   39.2050 C.3    69  VAL69       0.0252
     74  CG1      -14.7880   27.4520   39.5140 C.3    69  VAL69       0.0019
     75  CG2      -14.9830   29.6600   38.4940 C.3    69  VAL69       0.0019
     76  N        -13.5220   22.9110   43.7290 N.3    84  MET84      -0.1230
     77  CA       -14.0340   23.6020   42.5410 C.3    84  MET84       0.1702
     78  C        -13.3190   23.1700   41.2860 C.2    84  MET84       0.2592
     79  O        -12.1810   22.6600   41.3430 O.2    84  MET84      -0.2718
     80  CB       -13.7860   25.0920   42.6920 C.3    84  MET84       0.0401
     81  CG       -13.8840   25.4670   44.0570 C.3    84  MET84       0.0596
     82  SD       -15.5640   25.9140   44.1490 S.3    84  MET84      -0.1393
     83  CE       -15.2140   27.5820   44.1860 C.3    84  MET84       0.0692
     84  N        -14.0170   23.3750   40.1900 N.am   85  GLU85      -0.1966
     85  CA       -13.4700   23.3360   38.8410 C.3    85  GLU85       0.1733
     86  C        -12.1620   24.1090   38.8020 C.2    85  GLU85       0.2616
     87  O        -12.1230   25.2610   39.2730 O.2    85  GLU85      -0.2715
     88  CB       -14.4850   23.9430   37.9090 C.3    85  GLU85       0.0429
     89  CG       -14.0160   24.1410   36.5230 C.3    85  GLU85       0.1163
     90  CD       -15.0590   24.8450   35.6690 C.2    85  GLU85       0.3649
     91  OE1      -16.0850   25.2940   36.2220 O.co2  85  GLU85      -0.2457
     92  OE2      -14.8530   24.8920   34.4630 O.co2  85  GLU85      -0.2457
     93  N        -11.1210   23.5000   38.2410 N.am   86  TYR86      -0.1960
     94  CA        -9.8370   24.1970   38.0200 C.3    86  TYR86       0.1771
     95  C         -9.8940   24.9120   36.6780 C.2    86  TYR86       0.2620
     96  O        -10.1530   24.2790   35.6340 O.2    86  TYR86      -0.2715
     97  CB        -8.6770   23.2050   38.0430 C.3    86  TYR86       0.0574
     98  CG        -7.3550   23.8760   37.7750 C.ar   86  TYR86      -0.0198
     99  CD1       -6.8230   24.7480   38.7010 C.ar   86  TYR86      -0.0009
    100  CD2       -6.6770   23.6860   36.5810 C.ar   86  TYR86      -0.0009
    101  CE1       -5.6040   25.3590   38.4780 C.ar   86  TYR86       0.0417
    102  CE2       -5.4360   24.2560   36.3570 C.ar   86  TYR86       0.0417
    103  CZ        -4.9100   25.0960   37.3010 C.ar   86  TYR86       0.1957
    104  OH        -3.7230   25.7190   37.0660 O.3    86  TYR86      -0.2866
    105  N         -9.6740   26.2020   36.6880 N.am   87  CYS87      -0.1954
    106  CA        -9.6430   27.0380   35.4780 C.3    87  CYS87       0.1843
    107  C         -8.1970   27.2090   35.0390 C.2    87  CYS87       0.2625
    108  O         -7.4190   27.8130   35.7880 O.2    87  CYS87      -0.2714
    109  CB       -10.2930   28.3670   35.7480 C.3    87  CYS87       0.0997
    110  SG       -12.0290   28.1550   36.2190 S.3    87  CYS87      -0.0797
    111  N         -7.8200   26.6330   33.9140 N.am   88  ASN88      -0.1958
    112  CA        -6.3810   26.4760   33.6020 C.3    88  ASN88       0.1819
    113  C         -5.7650   27.8000   33.1280 C.2    88  ASN88       0.2622
    114  O         -4.5210   27.8340   32.9770 O.2    88  ASN88      -0.2715
    115  CB        -6.1220   25.3650   32.6030 C.3    88  ASN88       0.1195
    116  CG        -6.8460   25.5240   31.2830 C.2    88  ASN88       0.2630
    117  OD1       -7.3710   26.5670   30.9650 O.2    88  ASN88      -0.2716
    118  ND2       -6.8270   24.4820   30.4690 N.am   88  ASN88      -0.0877
    119  N         -6.5690   28.8400   32.8980 N.am   89  GLY89      -0.1940
    120  CA        -6.1230   30.1060   32.3030 C.3    89  GLY89       0.2014
    121  C         -5.8430   31.1860   33.3420 C.2    89  GLY89       0.2639
    122  O         -5.4780   32.3170   32.9230 O.2    89  GLY89      -0.2714
    123  N         -6.0850   30.9170   34.6270 N.am   90  GLY90      -0.1939
    124  CA        -5.9550   31.9360   35.6890 C.3    90  GLY90       0.2014
    125  C         -7.0220   33.0170   35.5460 C.2    90  GLY90       0.2638
    126  O         -8.1160   32.7150   35.1080 O.2    90  GLY90      -0.2714
    127  N         -6.7430   34.2140   36.0230 N.am   91  ASP91      -0.1971
    128  CA        -7.7960   35.2330   36.1880 C.3    91  ASP91       0.1709
    129  C         -7.6520   36.3180   35.1100 C.2    91  ASP91       0.2293
    130  O         -6.5900   36.4550   34.4690 O.2    91  ASP91      -0.2864
    131  CB        -7.8600   35.7610   37.6220 C.3    91  ASP91       0.1436
    132  CG        -6.7550   36.7100   38.0500 C.2    91  ASP91       0.3671
    133  OD1       -6.0670   37.2800   37.1790 O.co2  91  ASP91      -0.2456
    134  OD2       -6.5590   36.8330   39.2550 O.co2  91  ASP91      -0.2456
    135  N         -4.8800   39.0920   35.5440 N.3    94  ASP94      -0.1239
    136  CA        -3.5110   38.7420   35.0620 C.3    94  ASP94       0.1674
    137  C         -3.4980   38.7390   33.5280 C.2    94  ASP94       0.2266
    138  O         -2.5090   39.1650   32.9150 O.2    94  ASP94      -0.2867
    139  CB        -3.0510   37.4060   35.6530 C.3    94  ASP94       0.1410
    140  CG        -2.7350   37.4520   37.1440 C.2    94  ASP94       0.3668
    141  OD1       -2.6440   38.5550   37.7300 O.co2  94  ASP94      -0.2456
    142  OD2       -2.6150   36.3820   37.7200 O.co2  94  ASP94      -0.2456
    143  N        -10.2900   39.8940   39.0050 N.3   134  GLN134     -0.1245
    144  CA        -9.6790   38.8010   39.7890 C.3   134  GLN134      0.1566
    145  C        -10.6860   37.6640   39.9720 C.2   134  GLN134      0.2260
    146  O        -10.2550   36.5360   40.2490 O.2   134  GLN134     -0.2867
    147  CB        -9.1810   39.3370   41.1320 C.3   134  GLN134      0.0367
    148  CG        -8.0550   40.3540   40.9880 C.3   134  GLN134      0.0905
    149  CD        -8.4180   41.7920   40.6140 C.2   134  GLN134      0.2608
    150  OE1       -9.5750   42.2170   40.4880 O.2   134  GLN134     -0.2717
    151  NE2       -7.3760   42.5850   40.3810 N.am  134  GLN134     -0.0878
    152  N        -12.4980   34.0850   35.8640 N.3   137  LEU137     -0.1245
    153  CA       -11.4640   33.0690   35.5790 C.3   137  LEU137      0.1561
    154  C        -11.5850   32.5840   34.1500 C.2   137  LEU137      0.2260
    155  O        -12.6900   32.6180   33.5320 O.2   137  LEU137     -0.2867
    156  CB       -11.5550   31.9300   36.6020 C.3   137  LEU137      0.0270
    157  CG       -11.4320   32.3560   38.0670 C.3   137  LEU137      0.0019
    158  CD1      -11.3580   31.0990   38.9350 C.3   137  LEU137      0.0001
    159  CD2      -10.2270   33.2660   38.3200 C.3   137  LEU137      0.0001
    160  N         -3.9950   25.4840   27.6770 N.3   144  ARG144     -0.1245
    161  CA        -3.5110   26.8920   27.7520 C.3   144  ARG144      0.1563
    162  C         -2.9520   27.3680   26.4070 C.2   144  ARG144      0.2260
    163  O         -3.0620   28.5590   26.1280 O.2   144  ARG144     -0.2867
    164  CB        -2.4350   27.0090   28.8300 C.3   144  ARG144      0.0307
    165  CG        -3.0060   27.1320   30.2300 C.3   144  ARG144      0.0489
    166  CD        -1.9080   26.9790   31.2770 C.3   144  ARG144      0.2205
    167  NE        -1.5690   25.5670   31.4720 N.pl3 144  ARG144     -0.0865
    168  CZ        -0.6990   25.1070   32.3870 C.cat 144  ARG144      0.5346
    169  NH1       -0.0440   25.9540   33.1740 N.pl3 144  ARG144      0.1354
    170  NH2       -0.4830   23.8010   32.5030 N.pl3 144  ARG144      0.1354
    171  N        -16.2860   33.5770   39.5000 N.3   156  ALA156     -0.1231
    172  CA       -15.8670   32.9040   40.7290 C.3   156  ALA156      0.1694
    173  C        -16.1970   33.7570   41.9630 C.2   156  ALA156      0.2592
    174  O        -16.5330   34.8920   41.8010 O.2   156  ALA156     -0.2718
    175  CB       -14.4020   32.6340   40.6890 C.3   156  ALA156      0.0304
    176  N        -16.0220   33.1790   43.1210 N.am  157  ASP157     -0.1974
    177  CA       -15.9970   33.9020   44.4090 C.3   157  ASP157      0.1709
    178  C        -17.3820   34.4170   44.7300 C.2   157  ASP157      0.2293
    179  O        -17.6190   35.5960   44.6390 O.2   157  ASP157     -0.2864
    180  CB       -14.9630   35.0160   44.3900 C.3   157  ASP157      0.1436
    181  CG       -14.7330   35.6020   45.7620 C.2   157  ASP157      0.3671
    182  OD1      -15.3350   35.0400   46.7810 O.co2 157  ASP157     -0.2456
    183  OD2      -14.0130   36.6320   45.8110 O.co2 157  ASP157     -0.2456
@<TRIPOS>BOND
     1   163   162    2
     2   162   161    1
     3   160   161    1
     4   161   164    1
     5   164   165    1
     6   165   166    1
     7   118   116   am
     8   117   116    2
     9   166   167    1
    10   116   115    1
    11   167   168    2
    12   120   119    1
    13   120   121    1
    14   168   170    1
    15   168   169    1
    16   115   112    1
    17   119   113   am
    18   138   137    2
    19   122   121    2
    20   114   113    2
    21   113   112    1
    22   121   123   am
    23   137   136    1
    24   155   154    2
    25   112   111    1
    26   111   107   am
    27   154   153    1
    28    92    90   ar
    29   130   129    2
    30   123   124    1
    31   107   106    1
    32   107   108    2
    33   136   135    1
    34   136   139    1
    35   126   125    2
    36   129   128    1
    37   106   109    1
    38   106   105    1
    39   125   124    1
    40   125   127   am
    41   153   152    1
    42   153   156    1
    43    96    95    2
    44   139   140    1
    45    90    91   ar
    46    90    89    1
    47   109   110    1
    48   127   128    1
    49   128   131    1
    50   102   100   ar
    51   102   103   ar
    52    89    88    1
    53   100    98   ar
    54   156   157    1
    55    95   105   am
    56    95    94    1
    57   104   103    1
    58   140   142   ar
    59   140   141   ar
    60   133   132   ar
    61    54    53    1
    62   103   101   ar
    63   131   132    1
    64    98    97    1
    65    98    99   ar
    66    88    85    1
    67    69    70    1
    68    94    97    1
    69    94    93    1
    70   132   134   ar
    71   157   159    1
    72   157   158    1
    73    93    86   am
    74    53    52    1
    75    70    71    1
    76    70    73    1
    77   101    99   ar
    78    75    73    1
    79    86    85    1
    80    86    87    2
    81    85    84    1
    82   143   144    1
    83    71    72    2
    84    73    74    1
    85    52    51    1
    86   171   172    1
    87   144   145    1
    88   144   147    1
    89   145   146    2
    90    84    78   am
    91   151   149   am
    92   150   149    2
    93   149   148    1
    94   175   172    1
    95    51    50    1
    96   172   173    1
    97   148   147    1
    98    78    79    2
    99    78    77    1
   100   174   173    2
   101    23    21    1
   102    50    47    1
   103   173   176   am
   104    24    22    1
   105    55    56    1
   106    21    22    1
   107    21    18    1
   108    59    56    1
   109    77    80    1
   110    77    76    1
   111    80    81    1
   112    20    19    2
   113    56    57    1
   114    47    48    1
   115    47    46    1
   116   176   177    1
   117    18    19    1
   118    18    17    1
   119    48    49    2
   120    19    25   am
   121     7     6   ar
   122    81    82    1
   123    82    83    1
   124    12    11    2
   125     6     8   ar
   126     6     5    1
   127    57    58    2
   128   180   177    1
   129   180   181    1
   130   177   178    1
   131    17    11   am
   132     5     2    1
   133   179   178    2
   134    25    26    1
   135    11    10    1
   136     4     3    2
   137    44    43    1
   138    26    27    1
   139     2     3    1
   140     2     1    1
   141     3     9   am
   142   181   183   ar
   143   181   182   ar
   144    43    45    1
   145    43    40    1
   146     9    10    1
   147    10    13    1
   148    42    41    2
   149    27    29   am
   150    27    28    2
   151    41    40    1
   152    68    67    1
   153    40    39    1
   154    13    14    1
   155    29    30    1
   156    67    66    1
   157    14    16    1
   158    14    15    1
   159    60    61    1
   160    66    65    1
   161    32    31    2
   162    64    61    1
   163    64    65    1
   164    61    62    1
   165    30    31    1
   166    30    33    1
   167    33    34    1
   168    62    63    2
   169    34    35   ar
   170    34    36   ar
   171    35    37   ar
   172    36    38   ar
   173    37    38   ar
