@<TRIPOS>MOLECULE
tmp/6qasA00.pdb
 88 85 0 0 0
SMALL
GASTEIGER

@<TRIPOS>ATOM
      1  N         -4.3470   33.4080   47.2070 N.3    17  HIS17      -0.1226
      2  CA        -4.3610   33.7810   48.6430 C.3    17  HIS17       0.1752
      3  C         -5.1270   35.0990   48.7350 C.2    17  HIS17       0.2597
      4  O         -4.8740   35.9610   47.8900 O.2    17  HIS17      -0.2718
      5  CB        -2.9030   33.8760   49.1330 C.3    17  HIS17       0.0759
      6  CG        -2.7450   34.1140   50.5960 C.ar   17  HIS17       0.0818
      7  ND1       -2.7770   35.3850   51.1550 N.ar   17  HIS17      -0.2268
      8  CD2       -2.5140   33.2530   51.6230 C.ar   17  HIS17       0.1154
      9  CE1       -2.6230   35.2910   52.4670 C.ar   17  HIS17       0.1986
     10  NE2       -2.4620   33.9920   52.7830 N.ar   17  HIS17      -0.2212
     11  N         -6.1670   35.1600   49.5600 N.am   18  GLY18      -0.1942
     12  CA        -6.7740   36.4180   50.0030 C.3    18  GLY18       0.2014
     13  C         -7.0110   36.4020   51.4930 C.2    18  GLY18       0.2639
     14  O         -6.7690   35.3610   52.1310 O.2    18  GLY18      -0.2714
     15  N         -7.5110   37.4980   52.0400 N.am   19  ALA19      -0.1963
     16  CA        -7.7990   37.6350   53.4820 C.3    19  ALA19       0.1728
     17  C         -8.6990   36.4960   53.9460 C.2    19  ALA19       0.2616
     18  O         -8.6080   36.1380   55.1160 O.2    19  ALA19      -0.2715
     19  CB        -8.4230   38.9780   53.7700 C.3    19  ALA19       0.0334
     20  N         -9.5900   35.9640   53.0880 N.am   20  PHE20      -0.1960
     21  CA       -10.7030   35.1020   53.5540 C.3    20  PHE20       0.1771
     22  C        -10.6880   33.7550   52.8700 C.2    20  PHE20       0.2619
     23  O        -11.6180   32.9670   53.1150 O.2    20  PHE20      -0.2715
     24  CB       -12.0460   35.7890   53.3190 C.3    20  PHE20       0.0574
     25  CG       -12.0740   37.1750   53.8660 C.ar   20  PHE20      -0.0200
     26  CD1      -11.7710   37.3930   55.1990 C.ar   20  PHE20      -0.0042
     27  CD2      -12.2960   38.2610   53.0420 C.ar   20  PHE20      -0.0042
     28  CE1      -11.7410   38.6750   55.7070 C.ar   20  PHE20      -0.0003
     29  CE2      -12.3040   39.5390   53.5630 C.ar   20  PHE20      -0.0003
     30  CZ       -12.0150   39.7460   54.8880 C.ar   20  PHE20      -0.0000
     31  N         -9.6670   33.4700   52.0600 N.am   21  ALA21      -0.1977
     32  CA        -9.5560   32.1610   51.4050 C.3    21  ALA21       0.1597
     33  C         -8.1450   31.9340   50.9010 C.2    21  ALA21       0.2287
     34  O         -7.5190   32.8600   50.3450 O.2    21  ALA21      -0.2864
     35  CB       -10.5230   32.0400   50.2640 C.3    21  ALA21       0.0319
     36  N        -19.3770   41.0360   44.0550 N.3   130  ASP130     -0.1239
     37  CA       -17.8970   41.1440   44.1320 C.3   130  ASP130      0.1674
     38  C        -17.3100   40.8790   42.7490 C.2   130  ASP130      0.2266
     39  O        -16.3010   40.1740   42.6470 O.2   130  ASP130     -0.2867
     40  CB       -17.3670   40.2110   45.2140 C.3   130  ASP130      0.1410
     41  CG       -15.9150   40.4170   45.5790 C.2   130  ASP130      0.3668
     42  OD1      -15.4380   41.5510   45.4530 O.co2 130  ASP130     -0.2456
     43  OD2      -15.2740   39.3970   45.9920 O.co2 130  ASP130     -0.2456
     44  N        -15.1240   41.5970   39.7250 N.3   132  LYS132     -0.1245
     45  CA       -13.8690   42.3210   39.4450 C.3   132  LYS132      0.1561
     46  C        -13.0670   41.3640   38.5770 C.2   132  LYS132      0.2260
     47  O        -13.3190   40.1560   38.5590 O.2   132  LYS132     -0.2867
     48  CB       -13.1530   42.6650   40.7520 C.3   132  LYS132      0.0271
     49  CG       -12.8210   41.4510   41.6330 C.3   132  LYS132      0.0035
     50  CD       -12.1270   41.8450   42.9260 C.3   132  LYS132      0.0206
     51  CE       -12.0240   40.7430   43.9360 C.3   132  LYS132      0.1093
     52  NZ       -11.2070   41.1430   45.1100 N.3   132  LYS132     -0.1314
     53  N        -10.2900   39.8940   39.0050 N.3   134  GLN134     -0.1231
     54  CA        -9.6790   38.8010   39.7890 C.3   134  GLN134      0.1698
     55  C        -10.6860   37.6640   39.9720 C.2   134  GLN134      0.2592
     56  O        -10.2550   36.5360   40.2490 O.2   134  GLN134     -0.2718
     57  CB        -9.1810   39.3370   41.1320 C.3   134  GLN134      0.0381
     58  CG        -8.0550   40.3540   40.9880 C.3   134  GLN134      0.0905
     59  CD        -8.4180   41.7920   40.6140 C.2   134  GLN134      0.2608
     60  OE1       -9.5750   42.2170   40.4880 O.2   134  GLN134     -0.2717
     61  NE2       -7.3760   42.5850   40.3810 N.am  134  GLN134     -0.0878
     62  N        -11.9860   37.9350   39.8370 N.am  135  ASN135     -0.1974
     63  CA       -13.0370   36.9200   40.0240 C.3   135  ASN135      0.1688
     64  C        -13.6330   36.4730   38.6940 C.2   135  ASN135      0.2292
     65  O        -14.7540   35.8690   38.6870 O.2   135  ASN135     -0.2864
     66  CB       -14.0970   37.4830   40.9740 C.3   135  ASN135      0.1181
     67  CG       -13.6440   37.4580   42.3990 C.2   135  ASN135      0.2629
     68  OD1      -12.6980   36.7300   42.7470 O.2   135  ASN135     -0.2716
     69  ND2      -14.2850   38.2780   43.2400 N.am  135  ASN135     -0.0877
     70  N        -16.0220   33.1790   43.1210 N.3   157  ASP157     -0.1239
     71  CA       -15.9970   33.9020   44.4090 C.3   157  ASP157      0.1674
     72  C        -17.3820   34.4170   44.7300 C.2   157  ASP157      0.2266
     73  O        -17.6190   35.5960   44.6390 O.2   157  ASP157     -0.2867
     74  CB       -14.9630   35.0160   44.3900 C.3   157  ASP157      0.1410
     75  CG       -14.7330   35.6020   45.7620 C.2   157  ASP157      0.3668
     76  OD1      -15.3350   35.0400   46.7810 O.co2 157  ASP157     -0.2456
     77  OD2      -14.0130   36.6320   45.8110 O.co2 157  ASP157     -0.2456
     78  N        -19.7590   36.6090   48.8430 N.3   160  PHE160     -0.1241
     79  CA       -20.4900   37.8720   49.1640 C.3   160  PHE160      0.1605
     80  C        -21.8610   37.9030   48.5070 C.2   160  PHE160      0.2264
     81  O        -22.6110   38.8910   48.6250 O.2   160  PHE160     -0.2867
     82  CB       -19.6710   39.0530   48.6980 C.3   160  PHE160      0.0534
     83  CG       -18.3670   39.1680   49.4390 C.ar  160  PHE160     -0.0203
     84  CD1      -18.3200   39.6400   50.7330 C.ar  160  PHE160     -0.0042
     85  CD2      -17.1970   38.7260   48.8470 C.ar  160  PHE160     -0.0042
     86  CE1      -17.1320   39.6980   51.4270 C.ar  160  PHE160     -0.0003
     87  CE2      -16.0020   38.7590   49.5460 C.ar  160  PHE160     -0.0003
     88  CZ       -15.9680   39.2710   50.8190 C.ar  160  PHE160     -0.0000
@<TRIPOS>BOND
     1    47    46    2
     2    46    45    1
     3    65    64    2
     4    64    63    1
     5    53    54    1
     6    45    44    1
     7    45    48    1
     8    54    55    1
     9    54    57    1
    10    62    55   am
    11    62    63    1
    12    55    56    2
    13    63    66    1
    14    61    59   am
    15    60    59    2
    16    59    58    1
    17    48    49    1
    18    66    67    1
    19    58    57    1
    20    49    50    1
    21    67    68    2
    22    67    69   am
    23    39    38    2
    24    38    37    1
    25    50    51    1
    26    70    71    1
    27    51    52    1
    28    36    37    1
    29    37    40    1
    30    74    71    1
    31    74    75    1
    32    71    72    1
    33    73    72    2
    34    40    41    1
    35    42    41   ar
    36    41    43   ar
    37    75    77   ar
    38    75    76   ar
    39     1     2    1
    40     4     3    2
    41    80    81    2
    42    80    79    1
    43     2     3    1
    44     2     5    1
    45    82    79    1
    46    82    83    1
    47     3    11   am
    48    78    79    1
    49    85    83   ar
    50    85    87   ar
    51     5     6    1
    52    83    84   ar
    53    87    88   ar
    54    11    12    1
    55    12    13    1
    56    35    32    1
    57    34    33    2
    58     6     7   ar
    59     6     8   ar
    60    84    86   ar
    61    88    86   ar
    62    33    32    1
    63     7     9   ar
    64    32    31    1
    65    13    15   am
    66    13    14    2
    67     8    10   ar
    68    15    16    1
    69    31    22   am
    70     9    10   ar
    71    22    23    2
    72    22    21    1
    73    27    29   ar
    74    27    25   ar
    75    20    21    1
    76    20    17   am
    77    24    21    1
    78    24    25    1
    79    16    19    1
    80    16    17    1
    81    29    30   ar
    82    25    26   ar
    83    17    18    2
    84    30    28   ar
    85    26    28   ar
