@<TRIPOS>MOLECULE
tmp/6qatA00.pdb
 184 175 0 0 0
SMALL
GASTEIGER

@<TRIPOS>ATOM
      1  N        -38.7590    5.8030  -76.1050 N.3    15  VAL15      -0.1231
      2  CA       -37.6970    5.3600  -75.1400 C.3    15  VAL15       0.1692
      3  C        -37.6700    6.2980  -73.9250 C.2    15  VAL15       0.2593
      4  O        -37.1700    5.8760  -72.8980 O.2    15  VAL15      -0.2718
      5  CB       -36.3090    5.2500  -75.7910 C.3    15  VAL15       0.0266
      6  CG1      -36.2560    4.1060  -76.7750 C.3    15  VAL15       0.0020
      7  CG2      -35.8770    6.5320  -76.4440 C.3    15  VAL15       0.0020
      8  N        -38.2500    7.4890  -74.0310 N.am   16  GLY16      -0.1942
      9  CA       -38.6340    8.2900  -72.8630 C.3    16  GLY16       0.2014
     10  C        -39.1930    9.6440  -73.2440 C.2    16  GLY16       0.2639
     11  O        -39.4870    9.8760  -74.4550 O.2    16  GLY16      -0.2714
     12  N        -39.3470   10.5030  -72.2390 N.am   17  HIS17      -0.1959
     13  CA       -39.7030   11.9320  -72.3530 C.3    17  HIS17       0.1787
     14  C        -38.4840   12.7960  -71.9750 C.2    17  HIS17       0.2621
     15  O        -37.6220   12.3140  -71.2120 O.2    17  HIS17      -0.2715
     16  CB       -40.9260   12.2370  -71.4590 C.3    17  HIS17       0.0785
     17  CG       -42.2000   11.6410  -71.9470 C.ar   17  HIS17       0.0821
     18  ND1      -42.4960   10.2950  -71.8010 N.ar   17  HIS17      -0.2267
     19  CD2      -43.2760   12.2020  -72.5450 C.ar   17  HIS17       0.1154
     20  CE1      -43.6970   10.0540  -72.3020 C.ar   17  HIS17       0.1986
     21  NE2      -44.1960   11.2060  -72.7620 N.ar   17  HIS17      -0.2212
     22  N        -38.4050   13.9960  -72.5350 N.am   18  GLY18      -0.1940
     23  CA       -37.7130   15.1490  -71.9410 C.3    18  GLY18       0.2014
     24  C        -38.6760   16.2850  -71.6830 C.2    18  GLY18       0.2638
     25  O        -39.8690   16.0140  -71.5290 O.2    18  GLY18      -0.2714
     26  N        -38.1690   17.5170  -71.6330 N.am   19  ALA19      -0.1977
     27  CA       -38.9570   18.7510  -71.4040 C.3    19  ALA19       0.1597
     28  C        -39.7470   19.0800  -72.6750 C.2    19  ALA19       0.2287
     29  O        -39.1090   19.3360  -73.7240 O.2    19  ALA19      -0.2864
     30  CB       -38.0410   19.8920  -70.9950 C.3    19  ALA19       0.0319
     31  N        -38.9040   11.1240  -76.9560 N.3    23  VAL23      -0.1245
     32  CA       -37.6940   10.5360  -77.5850 C.3    23  VAL23       0.1561
     33  C        -38.0390    9.1460  -78.1220 C.2    23  VAL23       0.2260
     34  O        -38.4570    8.2970  -77.3320 O.2    23  VAL23      -0.2867
     35  CB       -36.5130   10.4700  -76.6000 C.3    23  VAL23       0.0252
     36  CG1      -35.2680    9.9210  -77.2730 C.3    23  VAL23       0.0019
     37  CG2      -36.2210   11.8110  -75.9830 C.3    23  VAL23       0.0019
     38  N        -31.3730    8.5610  -81.6640 N.3    37  ALA37      -0.1245
     39  CA       -32.4550    9.0570  -80.8010 C.3    37  ALA37       0.1562
     40  C        -33.0770   10.2630  -81.4580 C.2    37  ALA37       0.2260
     41  O        -32.3480   11.1510  -81.8490 O.2    37  ALA37      -0.2867
     42  CB       -31.9390    9.3980  -79.4330 C.3    37  ALA37       0.0290
     43  N        -35.6640   13.2510  -80.8710 N.3    39  LYS39      -0.1245
     44  CA       -36.2850   14.0380  -79.8090 C.3    39  LYS39       0.1561
     45  C        -37.3030   14.9750  -80.4450 C.2    39  LYS39       0.2260
     46  O        -36.8860   15.9420  -81.0810 O.2    39  LYS39      -0.2867
     47  CB       -35.2070   14.8050  -79.0320 C.3    39  LYS39       0.0271
     48  CG       -35.6760   15.3900  -77.7130 C.3    39  LYS39       0.0035
     49  CD       -34.5770   15.9190  -76.8300 C.3    39  LYS39       0.0206
     50  CE       -35.1090   16.8600  -75.7710 C.3    39  LYS39       0.1093
     51  NZ       -34.1770   17.0070  -74.6380 N.3    39  LYS39      -0.1314
     52  N        -29.2380   25.4840  -77.2310 N.3    56  GLU56      -0.1245
     53  CA       -28.8580   24.0740  -77.0120 C.3    56  GLU56       0.1567
     54  C        -28.2960   23.4950  -78.3330 C.2    56  GLU56       0.2260
     55  O        -27.2460   22.8280  -78.2960 O.2    56  GLU56      -0.2867
     56  CB       -30.0330   23.2810  -76.4740 C.3    56  GLU56       0.0388
     57  CG       -29.6170   21.9160  -75.9940 C.3    56  GLU56       0.1160
     58  CD       -30.7080   21.0470  -75.4210 C.2    56  GLU56       0.3649
     59  OE1      -31.8460   21.5960  -75.1500 O.co2  56  GLU56      -0.2457
     60  OE2      -30.4140   19.8070  -75.1940 O.co2  56  GLU56      -0.2457
     61  N        -23.1560   14.0230  -76.1160 N.3    69  VAL69      -0.1245
     62  CA       -24.1960   13.3810  -76.9550 C.3    69  VAL69       0.1561
     63  C        -24.2180   14.0950  -78.3180 C.2    69  VAL69       0.2260
     64  O        -24.1700   15.3370  -78.3320 O.2    69  VAL69      -0.2867
     65  CB       -25.5640   13.3960  -76.2580 C.3    69  VAL69       0.0252
     66  CG1      -26.0930   14.7930  -76.0840 C.3    69  VAL69       0.0019
     67  CG2      -26.5660   12.5400  -76.9960 C.3    69  VAL69       0.0019
     68  N        -30.1230   12.5280  -82.8730 N.3    85  MET85      -0.1230
     69  CA       -29.0280   12.5160  -81.8770 C.3    85  MET85       0.1702
     70  C        -28.5300   11.0980  -81.6560 C.2    85  MET85       0.2592
     71  O        -29.2470   10.1440  -82.0060 O.2    85  MET85      -0.2718
     72  CB       -29.5040   13.0810  -80.5550 C.3    85  MET85       0.0401
     73  CG       -30.1040   14.4410  -80.6640 C.3    85  MET85       0.0596
     74  SD       -30.4650   15.1190  -79.0360 S.3    85  MET85      -0.1393
     75  CE       -28.8440   15.7160  -78.5830 C.3    85  MET85       0.0692
     76  N        -27.3160   10.9830  -81.1570 N.am   86  GLU86      -0.1966
     77  CA       -26.6890    9.7200  -80.7150 C.3    86  GLU86       0.1733
     78  C        -27.7020    8.9090  -79.9230 C.2    86  GLU86       0.2616
     79  O        -28.3560    9.4840  -79.0620 O.2    86  GLU86      -0.2715
     80  CB       -25.4790   10.0590  -79.8620 C.3    86  GLU86       0.0429
     81  CG       -24.5950    8.8920  -79.5570 C.3    86  GLU86       0.1163
     82  CD       -23.2220    9.3040  -79.1170 C.2    86  GLU86       0.3649
     83  OE1      -23.0520   10.4960  -78.7660 O.co2  86  GLU86      -0.2457
     84  OE2      -22.3070    8.4560  -79.1770 O.co2  86  GLU86      -0.2457
     85  N        -27.8620    7.6460  -80.2530 N.am   87  TYR87      -0.1960
     86  CA       -28.6110    6.6680  -79.4400 C.3    87  TYR87       0.1771
     87  C        -27.7020    6.1270  -78.3440 C.2    87  TYR87       0.2620
     88  O        -26.5970    5.6440  -78.6340 O.2    87  TYR87      -0.2715
     89  CB       -29.1730    5.5220  -80.2810 C.3    87  TYR87       0.0574
     90  CG       -30.1190    4.6330  -79.5090 C.ar   87  TYR87      -0.0198
     91  CD1      -31.2310    5.1630  -78.8650 C.ar   87  TYR87      -0.0009
     92  CD2      -29.8620    3.2860  -79.3420 C.ar   87  TYR87      -0.0009
     93  CE1      -32.0630    4.3740  -78.0930 C.ar   87  TYR87       0.0417
     94  CE2      -30.6830    2.4860  -78.5650 C.ar   87  TYR87       0.0417
     95  CZ       -31.7810    3.0350  -77.9300 C.ar   87  TYR87       0.1957
     96  OH       -32.6210    2.2420  -77.2010 O.3    87  TYR87      -0.2866
     97  N        -28.1840    6.2090  -77.1150 N.am   88  CYS88      -0.1954
     98  CA       -27.5300    5.7240  -75.9070 C.3    88  CYS88       0.1843
     99  C        -28.3890    4.6160  -75.3120 C.2    88  CYS88       0.2625
    100  O        -29.3760    4.9280  -74.6230 O.2    88  CYS88      -0.2714
    101  CB       -27.3300    6.8700  -74.9310 C.3    88  CYS88       0.0997
    102  SG       -26.4970    8.3050  -75.6680 S.3    88  CYS88      -0.0797
    103  N        -28.0400    3.3710  -75.5950 N.am   89  ASN89      -0.1958
    104  CA       -28.9100    2.1880  -75.3700 C.3    89  ASN89       0.1819
    105  C        -28.9830    1.8590  -73.8680 C.2    89  ASN89       0.2622
    106  O        -29.5210    0.8070  -73.5270 O.2    89  ASN89      -0.2715
    107  CB       -28.4220    0.9870  -76.1840 C.3    89  ASN89       0.1195
    108  CG       -27.0070    0.5800  -75.8460 C.2    89  ASN89       0.2630
    109  OD1      -26.3390    1.2340  -75.0540 O.2    89  ASN89      -0.2716
    110  ND2      -26.5400   -0.4840  -76.4540 N.am   89  ASN89      -0.0877
    111  N        -28.4290    2.7120  -73.0220 N.am   90  GLY90      -0.1940
    112  CA       -28.2060    2.4200  -71.5930 C.3    90  GLY90       0.2014
    113  C        -29.1350    3.2140  -70.6950 C.2    90  GLY90       0.2639
    114  O        -29.1700    2.9310  -69.5040 O.2    90  GLY90      -0.2714
    115  N        -29.8790    4.1550  -71.2600 N.am   91  GLY91      -0.1939
    116  CA       -30.6600    5.1350  -70.5030 C.3    91  GLY91       0.2014
    117  C        -29.7570    6.1030  -69.7790 C.2    91  GLY91       0.2638
    118  O        -28.6020    6.2690  -70.2060 O.2    91  GLY91      -0.2714
    119  N        -30.2430    6.6760  -68.6810 N.am   92  ASP92      -0.1971
    120  CA       -29.4970    7.6540  -67.8630 C.3    92  ASP92       0.1709
    121  C        -28.9180    6.9590  -66.6290 C.2    92  ASP92       0.2293
    122  O        -29.2900    5.7970  -66.3530 O.2    92  ASP92      -0.2864
    123  CB       -30.3690    8.8660  -67.5090 C.3    92  ASP92       0.1436
    124  CG       -31.6390    8.5400  -66.7390 C.2    92  ASP92       0.3671
    125  OD1      -31.6700    7.4890  -66.0520 O.co2  92  ASP92      -0.2456
    126  OD2      -32.5860    9.3530  -66.8140 O.co2  92  ASP92      -0.2456
    127  N        -31.4290    5.7090  -63.8030 N.3    95  ASP95      -0.1239
    128  CA       -31.9520    4.3290  -63.9870 C.3    95  ASP95       0.1674
    129  C        -30.9100    3.3350  -63.4800 C.2    95  ASP95       0.2266
    130  O        -31.2980    2.3830  -62.7990 O.2    95  ASP95      -0.2867
    131  CB       -32.3010    4.0410  -65.4540 C.3    95  ASP95       0.1410
    132  CG       -33.3050    5.0130  -66.0550 C.2    95  ASP95       0.3668
    133  OD1      -34.2040    5.4600  -65.2960 O.co2  95  ASP95      -0.2456
    134  OD2      -33.1650    5.3470  -67.3070 O.co2  95  ASP95      -0.2456
    135  N        -29.8500   12.2730  -64.3580 N.3   135  GLN135     -0.1231
    136  CA       -30.9110   12.2790  -65.4110 C.3   135  GLN135      0.1698
    137  C        -30.3170   12.7650  -66.7540 C.2   135  GLN135      0.2592
    138  O        -30.9380   12.5210  -67.7720 O.2   135  GLN135     -0.2718
    139  CB       -32.0850   13.1760  -64.9860 C.3   135  GLN135      0.0381
    140  CG       -32.9920   12.5560  -63.9390 C.3   135  GLN135      0.0905
    141  CD       -32.4790   12.7460  -62.5190 C.2   135  GLN135      0.2608
    142  OE1      -31.7990   13.7010  -62.2020 O.2   135  GLN135     -0.2717
    143  NE2      -32.8370   11.8310  -61.6420 N.am  135  GLN135     -0.0878
    144  N        -29.1430   13.4030  -66.7170 N.am  136  ASN136     -0.1974
    145  CA       -28.4940   14.1290  -67.8520 C.3   136  ASN136      0.1688
    146  C        -27.3290   13.3080  -68.3900 C.2   136  ASN136      0.2292
    147  O        -26.6820   13.7610  -69.3500 O.2   136  ASN136     -0.2864
    148  CB       -27.9640   15.4910  -67.4070 C.3   136  ASN136      0.1181
    149  CG       -29.0400   16.5320  -67.3720 C.2   136  ASN136      0.2629
    150  OD1      -30.1540   16.2840  -67.8100 O.2   136  ASN136     -0.2716
    151  ND2      -28.7250   17.7120  -66.8900 N.am  136  ASN136     -0.0877
    152  N        -25.9840   10.0140  -69.8130 N.3   138  LEU138     -0.1245
    153  CA       -26.5160    8.8500  -70.5780 C.3   138  LEU138      0.1561
    154  C        -25.4460    7.7590  -70.6490 C.2   138  LEU138      0.2260
    155  O        -24.2600    8.0770  -70.4810 O.2   138  LEU138     -0.2867
    156  CB       -26.9340    9.3210  -71.9790 C.3   138  LEU138      0.0270
    157  CG       -27.8960   10.5110  -72.0060 C.3   138  LEU138      0.0019
    158  CD1      -28.4990   10.6870  -73.3800 C.3   138  LEU138      0.0001
    159  CD2      -29.0020   10.3610  -70.9570 C.3   138  LEU138      0.0001
    160  N        -23.6870    1.0600  -74.1800 N.3   141  TYR141     -0.1241
    161  CA       -22.9730   -0.2430  -74.1040 C.3   141  TYR141      0.1605
    162  C        -22.4500   -0.6200  -75.5020 C.2   141  TYR141      0.2264
    163  O        -23.2220   -0.5430  -76.4640 O.2   141  TYR141     -0.2867
    164  CB       -23.8950   -1.3460  -73.5690 C.3   141  TYR141      0.0534
    165  CG       -24.3840   -1.1790  -72.1450 C.ar  141  TYR141     -0.0201
    166  CD1      -25.5550   -0.4960  -71.8690 C.ar  141  TYR141     -0.0009
    167  CD2      -23.7590   -1.8280  -71.0910 C.ar  141  TYR141     -0.0009
    168  CE1      -26.0440   -0.3850  -70.5770 C.ar  141  TYR141      0.0417
    169  CE2      -24.2420   -1.7350  -69.7900 C.ar  141  TYR141      0.0417
    170  CZ       -25.3900   -1.0080  -69.5340 C.ar  141  TYR141      0.1957
    171  OH       -25.8790   -0.8910  -68.2610 O.3   141  TYR141     -0.2866
    172  N        -25.5810   14.9890  -71.6770 N.3   152  ALA152     -0.1231
    173  CA       -26.6990   15.5270  -72.4770 C.3   152  ALA152      0.1694
    174  C        -27.3150   16.7310  -71.7730 C.2   152  ALA152      0.2592
    175  O        -26.8280   17.1040  -70.6750 O.2   152  ALA152     -0.2718
    176  CB       -27.7130   14.4520  -72.7090 C.3   152  ALA152      0.0304
    177  N        -28.3100   17.3340  -72.4050 N.am  153  ASP153     -0.1974
    178  CA       -29.2070   18.3610  -71.8250 C.3   153  ASP153      0.1709
    179  C        -28.4130   19.6110  -71.5330 C.2   153  ASP153      0.2293
    180  O        -28.1150   19.8500  -70.3550 O.2   153  ASP153     -0.2864
    181  CB       -29.9100   17.8830  -70.5540 C.3   153  ASP153      0.1436
    182  CG       -30.9680   18.8700  -70.0920 C.2   153  ASP153      0.3671
    183  OD1      -31.2390   19.8530  -70.8780 O.co2 153  ASP153     -0.2456
    184  OD2      -31.5250   18.6820  -68.9590 O.co2 153  ASP153     -0.2456
@<TRIPOS>BOND
     1    68    69    1
     2    71    70    2
     3    69    70    1
     4    69    72    1
     5    41    40    2
     6    38    39    1
     7    70    76   am
     8    40    39    1
     9    76    77    1
    10    46    45    2
    11    43    44    1
    12    39    42    1
    13    77    78    1
    14    77    80    1
    15    73    72    1
    16    73    74    1
    17    45    44    1
    18    89    90    1
    19    89    86    1
    20    85    78   am
    21    85    86    1
    22    78    79    2
    23    80    81    1
    24    44    47    1
    25    81    82    1
    26    90    92   ar
    27    90    91   ar
    28    86    87    1
    29    92    94   ar
    30    84    82   ar
    31    82    83   ar
    32    74    75    1
    33    47    48    1
    34    91    93   ar
    35    88    87    2
    36    94    95   ar
    37    87    97   am
    38    54    55    2
    39    54    53    1
    40    64    63    2
    41    63    62    1
    42    33    32    1
    43    33    34    2
    44    93    95   ar
    45    95    96    1
    46    48    49    1
    47    32    31    1
    48    32    35    1
    49    36    35    1
    50    52    53    1
    51    97    98    1
    52    53    56    1
    53    67    65    1
    54    62    65    1
    55    62    61    1
    56    49    50    1
    57     6     5    1
    58    35    37    1
    59    56    57    1
    60   163   162    2
    61   110   108   am
    62     7     5    1
    63    65    66    1
    64   107   108    1
    65   107   104    1
    66     1     2    1
    67    57    58    1
    68    98    99    1
    69    98   101    1
    70   108   109    2
    71     5     2    1
    72    50    51    1
    73   102   101    1
    74   103   104    1
    75   103    99   am
    76   162   161    1
    77    58    60   ar
    78    58    59   ar
    79   104   105    1
    80    99   100    2
    81     2     3    1
    82    11    10    2
    83   160   161    1
    84   161   164    1
    85     8     3   am
    86     8     9    1
    87     3     4    2
    88   105   106    2
    89   105   111   am
    90    29    28    2
    91   164   165    1
    92   158   157    1
    93    10     9    1
    94    10    12   am
    95   111   112    1
    96    21    19   ar
    97    21    20   ar
    98   176   173    1
    99    28    27    1
   100    19    17   ar
   101    22    14   am
   102    22    23    1
   103   173   174    1
   104   173   172    1
   105   177   178    1
   106   177   174   am
   107    13    12    1
   108    13    14    1
   109    13    16    1
   110    20    18   ar
   111   165   166   ar
   112   165   167   ar
   113   157   156    1
   114   157   159    1
   115   156   153    1
   116    14    15    2
   117    17    18   ar
   118    17    16    1
   119    23    24    1
   120   166   168   ar
   121   178   179    1
   122   178   181    1
   123   174   175    2
   124    24    26   am
   125    24    25    2
   126    26    27    1
   127   112   113    1
   128   179   180    2
   129    27    30    1
   130   115   113   am
   131   115   116    1
   132   167   169   ar
   133   183   182   ar
   134   113   114    2
   135   154   153    1
   136   154   155    2
   137   153   152    1
   138   168   170   ar
   139   181   182    1
   140   116   117    1
   141   118   117    2
   142   182   184   ar
   143   169   170   ar
   144   117   119   am
   145   170   171    1
   146   147   146    2
   147   119   120    1
   148   146   145    1
   149   120   123    1
   150   120   121    1
   151   145   148    1
   152   145   144    1
   153   150   149    2
   154   138   137    2
   155   123   124    1
   156   148   149    1
   157   149   151   am
   158   134   132   ar
   159   126   124   ar
   160   137   144   am
   161   137   136    1
   162   124   125   ar
   163   121   122    2
   164   132   131    1
   165   132   133   ar
   166   131   128    1
   167   136   139    1
   168   136   135    1
   169   139   140    1
   170   128   127    1
   171   128   129    1
   172   140   141    1
   173   129   130    2
   174   141   142    2
   175   141   143   am
