@<TRIPOS>MOLECULE
tmp/6qauA00.pdb
 174 164 0 0 0
SMALL
GASTEIGER

@<TRIPOS>ATOM
      1  N         43.8850  -46.4170  -26.7080 N.3    16  VAL16      -0.1231
      2  CA        44.0070  -44.9490  -26.8960 C.3    16  VAL16       0.1692
      3  C         42.6660  -44.3160  -27.3020 C.2    16  VAL16       0.2593
      4  O         42.5810  -43.1130  -27.3200 O.2    16  VAL16      -0.2718
      5  CB        45.1030  -44.5530  -27.9040 C.3    16  VAL16       0.0266
      6  CG1       46.4750  -44.9210  -27.3840 C.3    16  VAL16       0.0020
      7  CG2       44.8350  -45.1330  -29.2960 C.3    16  VAL16       0.0020
      8  N         41.6470  -45.1110  -27.5980 N.am   17  GLY17      -0.1942
      9  CA        40.3080  -44.6100  -27.7040 C.3    17  GLY17       0.2014
     10  C         39.3200  -45.7120  -28.0580 C.2    17  GLY17       0.2639
     11  O         39.7090  -46.8450  -28.3850 O.2    17  GLY17      -0.2714
     12  N         38.0290  -45.3780  -27.9560 N.am   18  HIS18      -0.1959
     13  CA        36.9800  -46.2970  -28.2360 C.3    18  HIS18       0.1787
     14  C         35.6610  -45.5660  -28.4740 C.2    18  HIS18       0.2620
     15  O         35.4830  -44.4560  -28.0470 O.2    18  HIS18      -0.2715
     16  CB        36.8060  -47.2920  -27.0920 C.3    18  HIS18       0.0785
     17  CG        36.2550  -46.6730  -25.8570 C.ar   18  HIS18       0.0821
     18  ND1       37.0590  -46.0580  -24.9420 N.ar   18  HIS18      -0.2267
     19  CD2       34.9840  -46.5560  -25.4130 C.ar   18  HIS18       0.1154
     20  CE1       36.3160  -45.6070  -23.9470 C.ar   18  HIS18       0.1986
     21  NE2       35.0260  -45.8810  -24.2240 N.ar   18  HIS18      -0.2212
     22  N         34.7340  -46.2720  -29.1260 N.am   19  GLY19      -0.1954
     23  CA        33.3590  -45.8730  -29.2660 C.3    19  GLY19       0.1869
     24  C         32.4530  -47.0820  -29.2050 C.2    19  GLY19       0.2309
     25  O         32.9050  -48.1830  -28.8870 O.2    19  GLY19      -0.2863
     26  N         33.9930  -49.9380  -31.7540 N.3    22  ALA22      -0.1245
     27  CA        35.4440  -50.0570  -32.0430 C.3    22  ALA22       0.1562
     28  C         36.2730  -49.7340  -30.7990 C.2    22  ALA22       0.2260
     29  O         35.8410  -48.9640  -29.9470 O.2    22  ALA22      -0.2867
     30  CB        35.8140  -49.1540  -33.1840 C.3    22  ALA22       0.0290
     31  N         40.6470  -48.8010  -30.2090 N.3    24  VAL24      -0.1245
     32  CA        41.8790  -48.4240  -30.8830 C.3    24  VAL24       0.1561
     33  C         43.0230  -48.5510  -29.8870 C.2    24  VAL24       0.2260
     34  O         42.9380  -48.0500  -28.7830 O.2    24  VAL24      -0.2867
     35  CB        41.8200  -47.0000  -31.4590 C.3    24  VAL24       0.0252
     36  CG1       43.0970  -46.6400  -32.2120 C.3    24  VAL24       0.0019
     37  CG2       40.6060  -46.8300  -32.3520 C.3    24  VAL24       0.0019
     38  N         48.2010  -47.1030  -35.0860 N.3    38  ALA38      -0.1245
     39  CA        46.9640  -47.1450  -34.3600 C.3    38  ALA38       0.1562
     40  C         46.1300  -48.2930  -34.9140 C.2    38  ALA38       0.2260
     41  O         45.8410  -48.3220  -36.1150 O.2    38  ALA38      -0.2867
     42  CB        46.2470  -45.8240  -34.4850 C.3    38  ALA38       0.0290
     43  N         42.6940  -50.3020  -34.9490 N.3    40  LYS40      -0.1245
     44  CA        41.2830  -50.2230  -34.6450 C.3    40  LYS40       0.1561
     45  C         40.6760  -51.6120  -34.8010 C.2    40  LYS40       0.2260
     46  O         40.7670  -52.1990  -35.8620 O.2    40  LYS40      -0.2867
     47  CB        40.5820  -49.2670  -35.6060 C.3    40  LYS40       0.0271
     48  CG        39.0950  -49.0090  -35.3700 C.3    40  LYS40       0.0035
     49  CD        38.5650  -48.0000  -36.3520 C.3    40  LYS40       0.0206
     50  CE        37.2730  -47.3170  -35.9550 C.3    40  LYS40       0.1093
     51  NZ        37.0960  -46.0190  -36.6750 N.3    40  LYS40      -0.1314
     52  N         44.5120  -39.4490  -41.4380 N.3    70  VAL70      -0.1245
     53  CA        45.2030  -40.6420  -41.0180 C.3    70  VAL70       0.1561
     54  C         45.2030  -41.6540  -42.1790 C.2    70  VAL70       0.2260
     55  O         44.1690  -41.8860  -42.8400 O.2    70  VAL70      -0.2867
     56  CB        44.5920  -41.2560  -39.7360 C.3    70  VAL70       0.0252
     57  CG1       44.7360  -40.3360  -38.5430 C.3    70  VAL70       0.0019
     58  CG2       43.1270  -41.6560  -39.9170 C.3    70  VAL70       0.0019
     59  N         46.3130  -48.2490  -38.9260 N.3    86  MET86      -0.1230
     60  CA        46.3270  -46.8860  -39.4280 C.3    86  MET86       0.1702
     61  C         47.4950  -46.1080  -38.8060 C.2    86  MET86       0.2592
     62  O         48.1720  -46.5860  -37.8980 O.2    86  MET86      -0.2718
     63  CB        44.9890  -46.1980  -39.1070 C.3    86  MET86       0.0401
     64  CG        43.8240  -46.7800  -39.8900 C.3    86  MET86       0.0596
     65  SD        42.1870  -46.1560  -39.3800 S.3    86  MET86      -0.1393
     66  CE        42.0610  -46.8500  -37.7360 C.3    86  MET86       0.0692
     67  N         47.7190  -44.9130  -39.3390 N.am   87  GLU87      -0.1966
     68  CA        48.7200  -43.9630  -38.8700 C.3    87  GLU87       0.1733
     69  C         48.4800  -43.6450  -37.3880 C.2    87  GLU87       0.2616
     70  O         47.3830  -43.3300  -36.9950 O.2    87  GLU87      -0.2715
     71  CB        48.6130  -42.7080  -39.7270 C.3    87  GLU87       0.0429
     72  CG        49.6380  -41.6520  -39.4230 C.3    87  GLU87       0.1163
     73  CD        49.6070  -40.5000  -40.4220 C.2    87  GLU87       0.3649
     74  OE1       48.6420  -40.4300  -41.2110 O.co2  87  GLU87      -0.2457
     75  OE2       50.5770  -39.7040  -40.4510 O.co2  87  GLU87      -0.2457
     76  N         49.5260  -43.7480  -36.5740 N.am   88  TYR88      -0.1960
     77  CA        49.4680  -43.3350  -35.1600 C.3    88  TYR88       0.1771
     78  C         49.8380  -41.8540  -35.0320 C.2    88  TYR88       0.2620
     79  O         50.7950  -41.4270  -35.5590 O.2    88  TYR88      -0.2715
     80  CB        50.4370  -44.1440  -34.3080 C.3    88  TYR88       0.0574
     81  CG        50.4110  -43.8090  -32.8430 C.ar   88  TYR88      -0.0198
     82  CD1       49.3150  -44.1270  -32.0560 C.ar   88  TYR88      -0.0009
     83  CD2       51.4810  -43.1690  -32.2290 C.ar   88  TYR88      -0.0009
     84  CE1       49.2850  -43.8480  -30.6950 C.ar   88  TYR88       0.0417
     85  CE2       51.4670  -42.8730  -30.8720 C.ar   88  TYR88       0.0417
     86  CZ        50.3620  -43.2130  -30.1100 C.ar   88  TYR88       0.1957
     87  OH        50.3220  -42.9310  -28.7900 O.3    88  TYR88      -0.2866
     88  N         49.0410  -41.1160  -34.2740 N.am   89  CYS89      -0.1954
     89  CA        49.2630  -39.6980  -33.9910 C.3    89  CYS89       0.1843
     90  C         49.8250  -39.5670  -32.5720 C.2    89  CYS89       0.2625
     91  O         49.1010  -39.7740  -31.6020 O.2    89  CYS89      -0.2714
     92  CB        47.9710  -38.9110  -34.1560 C.3    89  CYS89       0.0997
     93  SG        47.3480  -39.0280  -35.8480 S.3    89  CYS89      -0.0797
     94  N         51.1320  -39.2820  -32.4730 N.am   90  ASN90      -0.1958
     95  CA        51.8380  -39.4540  -31.2280 C.3    90  ASN90       0.1819
     96  C         51.5440  -38.2920  -30.2860 C.2    90  ASN90       0.2622
     97  O         51.9210  -38.3590  -29.1430 O.2    90  ASN90      -0.2715
     98  CB        53.3350  -39.6620  -31.4370 C.3    90  ASN90       0.1195
     99  CG        54.0040  -38.5110  -32.1500 C.2    90  ASN90       0.2630
    100  OD1       53.3710  -37.4860  -32.4220 O.2    90  ASN90      -0.2716
    101  ND2       55.2680  -38.6920  -32.4880 N.am   90  ASN90      -0.0877
    102  N         50.7920  -37.2900  -30.7580 N.am   91  GLY91      -0.1940
    103  CA        50.4400  -36.1200  -29.9610 C.3    91  GLY91       0.2014
    104  C         49.0740  -36.2270  -29.2930 C.2    91  GLY91       0.2639
    105  O         48.6780  -35.3080  -28.5620 O.2    91  GLY91      -0.2714
    106  N         48.3270  -37.3230  -29.5270 N.am   92  GLY92      -0.1939
    107  CA        46.9920  -37.4380  -28.9650 C.3    92  GLY92       0.2014
    108  C         46.0140  -36.5390  -29.7120 C.2    92  GLY92       0.2638
    109  O         46.2160  -36.2410  -30.8750 O.2    92  GLY92      -0.2714
    110  N         44.9520  -36.1100  -29.0320 N.am   93  ASP93      -0.1971
    111  CA        43.8360  -35.4040  -29.6750 C.3    93  ASP93       0.1709
    112  C         43.8690  -33.9030  -29.3000 C.2    93  ASP93       0.2293
    113  O         44.5920  -33.4790  -28.4050 O.2    93  ASP93      -0.2864
    114  CB        42.5130  -36.0870  -29.3280 C.3    93  ASP93       0.1436
    115  CG        42.0950  -35.9650  -27.8750 C.2    93  ASP93       0.3671
    116  OD1       42.7430  -35.2000  -27.1350 O.co2  93  ASP93      -0.2456
    117  OD2       41.1250  -36.6620  -27.4820 O.co2  93  ASP93      -0.2456
    118  N         42.8640  -32.8660  -25.5530 N.3    96  ASP96      -0.1239
    119  CA        43.8900  -32.9230  -24.4930 C.3    96  ASP96       0.1674
    120  C         44.8520  -31.7300  -24.6280 C.2    96  ASP96       0.2266
    121  O         45.2700  -31.1380  -23.6240 O.2    96  ASP96      -0.2867
    122  CB        44.6770  -34.2370  -24.5370 C.3    96  ASP96       0.1410
    123  CG        43.8870  -35.4930  -24.1970 C.2    96  ASP96       0.3668
    124  OD1       42.8350  -35.3660  -23.5260 O.co2  96  ASP96      -0.2456
    125  OD2       44.3140  -36.5960  -24.6690 O.co2  96  ASP96      -0.2456
    126  N         38.0650  -34.7460  -30.2390 N.3   136  GLN136     -0.1231
    127  CA        38.4720  -36.1300  -29.9210 C.3   136  GLN136      0.1698
    128  C         38.9520  -36.8950  -31.1780 C.2   136  GLN136      0.2592
    129  O         39.6610  -37.8930  -31.0320 O.2   136  GLN136     -0.2718
    130  CB        37.3370  -36.8840  -29.2320 C.3   136  GLN136      0.0381
    131  CG        37.0660  -36.4410  -27.7930 C.3   136  GLN136      0.0905
    132  CD        36.3390  -35.1140  -27.7000 C.2   136  GLN136      0.2608
    133  OE1       35.5560  -34.7330  -28.5900 O.2   136  GLN136     -0.2717
    134  NE2       36.5800  -34.4000  -26.5950 N.am  136  GLN136     -0.0878
    135  N         38.6130  -36.4330  -32.3960 N.am  137  ASN137     -0.1974
    136  CA        39.0750  -37.1150  -33.6410 C.3   137  ASN137      0.1688
    137  C         39.8240  -36.1510  -34.5740 C.2   137  ASN137      0.2292
    138  O         40.1210  -36.4910  -35.7070 O.2   137  ASN137     -0.2864
    139  CB        37.9410  -37.8220  -34.3820 C.3   137  ASN137      0.1181
    140  CG        36.7670  -36.9080  -34.6870 C.2   137  ASN137      0.2629
    141  OD1       36.9620  -35.7160  -34.9530 O.2   137  ASN137     -0.2716
    142  ND2       35.5500  -37.4580  -34.6660 N.am  137  ASN137     -0.0877
    143  N         43.4570  -34.9320  -34.5930 N.3   139  LEU139     -0.1245
    144  CA        44.5990  -35.5140  -33.8450 C.3   139  LEU139      0.1561
    145  C         45.8850  -34.7690  -34.1970 C.2   139  LEU139      0.2260
    146  O         45.9730  -34.1390  -35.2550 O.2   139  LEU139     -0.2867
    147  CB        44.7370  -37.0020  -34.1750 C.3   139  LEU139      0.0270
    148  CG        43.4900  -37.8540  -33.9270 C.3   139  LEU139      0.0019
    149  CD1       43.7660  -39.3340  -34.1780 C.3   139  LEU139      0.0001
    150  CD2       42.9900  -37.6530  -32.5190 C.3   139  LEU139      0.0001
    151  N         59.8930  -35.5370  -32.0180 N.3   145  ARG145     -0.1245
    152  CA        59.4480  -35.2060  -30.6580 C.3   145  ARG145      0.1563
    153  C         60.3240  -34.0790  -30.0760 C.2   145  ARG145      0.2260
    154  O         59.9370  -33.4670  -29.0810 O.2   145  ARG145     -0.2867
    155  CB        59.4180  -36.4630  -29.7740 C.3   145  ARG145      0.0307
    156  CG        58.4510  -37.5440  -30.2540 C.3   145  ARG145      0.0489
    157  CD        57.6900  -38.2840  -29.1470 C.3   145  ARG145      0.2205
    158  NE        57.2030  -39.5930  -29.5990 N.pl3 145  ARG145     -0.0865
    159  CZ        56.3780  -40.4020  -28.9140 C.cat 145  ARG145      0.5346
    160  NH1       55.9130  -40.0400  -27.7300 N.pl3 145  ARG145      0.1354
    161  NH2       56.0230  -41.5750  -29.4210 N.pl3 145  ARG145      0.1354
    162  N         40.5140  -38.0740  -38.1800 N.3   158  ALA158     -0.1231
    163  CA        40.3410  -39.5200  -37.9610 C.3   158  ALA158      0.1694
    164  C         38.8650  -39.8480  -37.7450 C.2   158  ALA158      0.2592
    165  O         38.0530  -38.9420  -37.5790 O.2   158  ALA158     -0.2718
    166  CB        41.1840  -39.9770  -36.7970 C.3   158  ALA158      0.0304
    167  N         38.5630  -41.1520  -37.7600 N.am  159  ASP159     -0.1974
    168  CA        37.2730  -41.7510  -37.4510 C.3   159  ASP159      0.1709
    169  C         36.2060  -41.3310  -38.4640 C.2   159  ASP159      0.2293
    170  O         35.4110  -40.4070  -38.2150 O.2   159  ASP159     -0.2864
    171  CB        36.7740  -41.4190  -36.0370 C.3   159  ASP159      0.1436
    172  CG        35.5400  -42.2590  -35.6090 C.2   159  ASP159      0.3671
    173  OD1       35.1280  -43.1750  -36.3750 O.co2 159  ASP159     -0.2456
    174  OD2       35.0130  -41.9890  -34.5480 O.co2 159  ASP159     -0.2456
@<TRIPOS>BOND
     1    55    54    2
     2    54    53    1
     3    52    53    1
     4    74    73   ar
     5    53    56    1
     6    75    73   ar
     7    73    72    1
     8    58    56    1
     9    64    65    1
    10    64    63    1
    11    56    57    1
    12    71    72    1
    13    71    68    1
    14    60    63    1
    15    60    59    1
    16    60    61    1
    17    65    66    1
    18    67    68    1
    19    67    61   am
    20    68    69    1
    21    61    62    2
    22   169   170    2
    23   169   168    1
    24   162   163    1
    25   163   164    1
    26   163   166    1
    27   167   164   am
    28   167   168    1
    29   164   165    2
    30   168   171    1
    31    69    70    2
    32    69    76   am
    33    51    50    1
    34    76    77    1
    35   173   172   ar
    36    49    50    1
    37    49    48    1
    38    41    40    2
    39   171   172    1
    40    46    45    2
    41    93    92    1
    42   138   137    2
    43   172   174   ar
    44    47    48    1
    45    47    44    1
    46    79    78    2
    47   146   145    2
    48    77    78    1
    49    77    80    1
    50    38    39    1
    51    78    88   am
    52   141   140    2
    53    43    44    1
    54    40    39    1
    55    45    44    1
    56   140   142   am
    57   140   139    1
    58   143   144    1
    59   137   136    1
    60    42    39    1
    61   139   136    1
    62    80    81    1
    63    88    89    1
    64   145   144    1
    65   149   148    1
    66   147   148    1
    67   147   144    1
    68    92    89    1
    69    89    90    1
    70   148   150    1
    71   136   135    1
    72    30    27    1
    73    81    83   ar
    74    81    82   ar
    75    90    94   am
    76    90    91    2
    77   101    99   am
    78    94    95    1
    79   100    99    2
    80   135   128   am
    81    37    35    1
    82    83    85   ar
    83    36    35    1
    84    99    98    1
    85    82    84   ar
    86    27    26    1
    87    27    28    1
    88   151   152    1
    89    35    32    1
    90    98    95    1
    91    95    96    1
    92   128   129    2
    93   128   127    1
    94    32    31    1
    95    32    33    1
    96   109   108    2
    97    85    86   ar
    98    28    29    2
    99   102    96   am
   100   102   103    1
   101    84    86   ar
   102   152   153    1
   103   152   155    1
   104    96    97    2
   105   156   155    1
   106   156   157    1
   107   126   127    1
   108    86    87    1
   109   153   154    2
   110   103   104    1
   111   127   130    1
   112    33    34    2
   113   108   110   am
   114   108   107    1
   115   111   114    1
   116   111   112    1
   117   111   110    1
   118   158   157    1
   119   158   159    2
   120   106   104   am
   121   106   107    1
   122   161   159    1
   123   114   115    1
   124   112   113    2
   125     7     5    1
   126   104   105    2
   127    23    24    1
   128    23    22    1
   129   130   131    1
   130    24    25    2
   131    22    14   am
   132   159   160    1
   133   133   132    2
   134    14    13    1
   135    14    15    2
   136    11    10    2
   137    13    12    1
   138    13    16    1
   139    10    12   am
   140    10     9    1
   141     5     6    1
   142     5     2    1
   143   115   117   ar
   144   115   116   ar
   145   131   132    1
   146     9     8    1
   147   132   134   am
   148     8     3   am
   149     4     3    2
   150     3     2    1
   151    16    17    1
   152     2     1    1
   153    17    19   ar
   154    17    18   ar
   155   118   119    1
   156    19    21   ar
   157    18    20   ar
   158   125   123   ar
   159   120   119    1
   160   120   121    2
   161   122   119    1
   162   122   123    1
   163    21    20   ar
   164   123   124   ar
