@<TRIPOS>MOLECULE
tmp/6qavB00.pdb
 159 149 0 0 0
SMALL
GASTEIGER

@<TRIPOS>ATOM
      1  N        -66.4520  -28.3510  -64.6640 N.3    16  VAL16      -0.1231
      2  CA       -65.6090  -28.1720  -63.4590 C.3    16  VAL16       0.1692
      3  C        -66.4720  -27.9360  -62.2030 C.2    16  VAL16       0.2593
      4  O        -65.9600  -27.8980  -61.0860 O.2    16  VAL16      -0.2718
      5  CB       -64.5830  -27.0420  -63.6430 C.3    16  VAL16       0.0266
      6  CG1      -63.5220  -27.4040  -64.6720 C.3    16  VAL16       0.0020
      7  CG2      -65.2540  -25.7250  -64.0130 C.3    16  VAL16       0.0020
      8  N        -67.7810  -27.7670  -62.3600 N.am   17  GLY17      -0.1942
      9  CA       -68.6460  -27.7020  -61.2240 C.3    17  GLY17       0.2014
     10  C        -70.0860  -27.5600  -61.6280 C.2    17  GLY17       0.2639
     11  O        -70.3890  -27.2890  -62.7910 O.2    17  GLY17      -0.2714
     12  N        -70.9790  -27.8320  -60.6680 N.am   18  HIS18      -0.1959
     13  CA       -72.3920  -27.7550  -60.8950 C.3    18  HIS18       0.1787
     14  C        -73.0940  -27.5190  -59.5680 C.2    18  HIS18       0.2620
     15  O        -72.5900  -27.8690  -58.5430 O.2    18  HIS18      -0.2715
     16  CB       -72.9380  -29.0230  -61.5790 C.3    18  HIS18       0.0785
     17  CG       -72.8440  -30.2460  -60.7370 C.ar   18  HIS18       0.0821
     18  ND1      -71.6970  -31.0160  -60.6900 N.ar   18  HIS18      -0.2267
     19  CD2      -73.7270  -30.8250  -59.8990 C.ar   18  HIS18       0.1154
     20  CE1      -71.8870  -32.0250  -59.8580 C.ar   18  HIS18       0.1986
     21  NE2      -73.1090  -31.9120  -59.3420 N.ar   18  HIS18      -0.2212
     22  N        -74.2710  -26.9150  -59.6530 N.am   19  GLY19      -0.1954
     23  CA       -75.1600  -26.7430  -58.5490 C.3    19  GLY19       0.1869
     24  C        -76.5890  -26.9390  -59.0250 C.2    19  GLY19       0.2309
     25  O        -76.8500  -27.5130  -60.1010 O.2    19  GLY19      -0.2863
     26  N        -77.2130  -24.4760  -62.0780 N.3    22  ALA22      -0.1245
     27  CA       -76.0490  -23.9490  -62.7950 C.3    22  ALA22       0.1562
     28  C        -75.0090  -25.0500  -63.0730 C.2    22  ALA22       0.2260
     29  O        -74.8380  -25.9870  -62.2800 O.2    22  ALA22      -0.2867
     30  CB       -75.4660  -22.8120  -62.0050 C.3    22  ALA22       0.0290
     31  N        -70.7840  -25.1720  -64.6950 N.3    24  VAL24      -0.1245
     32  CA       -69.6240  -24.4140  -65.0620 C.3    24  VAL24       0.1561
     33  C        -68.6920  -25.3260  -65.8470 C.2    24  VAL24       0.2260
     34  O        -68.3840  -26.4260  -65.3810 O.2    24  VAL24      -0.2867
     35  CB       -68.8830  -23.8210  -63.8510 C.3    24  VAL24       0.0252
     36  CG1      -67.6790  -23.0210  -64.2780 C.3    24  VAL24       0.0019
     37  CG2      -69.7840  -22.9540  -62.9900 C.3    24  VAL24       0.0019
     38  N        -63.7280  -19.6670  -67.2820 N.3    38  ALA38      -0.1245
     39  CA       -64.7790  -20.5150  -66.7320 C.3    38  ALA38       0.1562
     40  C        -66.1270  -20.0070  -67.2430 C.2    38  ALA38       0.2260
     41  O        -66.4180  -18.7780  -67.1450 O.2    38  ALA38      -0.2867
     42  CB       -64.7420  -20.4640  -65.2130 C.3    38  ALA38       0.0290
     43  N        -70.1610  -20.3530  -67.0860 N.3    40  LYS40      -0.1245
     44  CA       -71.2710  -20.7770  -66.2780 C.3    40  LYS40       0.1561
     45  C        -72.5810  -20.5790  -67.0390 C.2    40  LYS40       0.2260
     46  O        -72.7850  -19.5140  -67.5700 O.2    40  LYS40      -0.2867
     47  CB       -71.2960  -19.9120  -65.0190 C.3    40  LYS40       0.0271
     48  CG       -72.3410  -20.2960  -63.9830 C.3    40  LYS40       0.0035
     49  CD       -72.1120  -19.5730  -62.6570 C.3    40  LYS40       0.0206
     50  CE       -73.0990  -19.9410  -61.5920 C.3    40  LYS40       0.1093
     51  NZ       -72.7570  -19.2830  -60.3170 N.3    40  LYS40      -0.1314
     52  N        -63.1280  -13.7430  -58.4610 N.3    70  VAL70      -0.1245
     53  CA       -63.1110  -14.1190  -59.8660 C.3    70  VAL70       0.1561
     54  C        -63.6630  -12.9580  -60.6910 C.2    70  VAL70       0.2260
     55  O        -64.7010  -12.3720  -60.3690 O.2    70  VAL70      -0.2867
     56  CB       -63.8280  -15.4450  -60.1780 C.3    70  VAL70       0.0252
     57  CG1      -63.0880  -16.6330  -59.5780 C.3    70  VAL70       0.0019
     58  CG2      -65.2730  -15.4480  -59.7350 C.3    70  VAL70       0.0019
     59  N        -66.1030  -16.0620  -67.0200 N.3    86  MET86      -0.1230
     60  CA       -65.3940  -15.6190  -65.8250 C.3    86  MET86       0.1702
     61  C        -63.9580  -16.1300  -65.8600 C.2    86  MET86       0.2592
     62  O        -63.6030  -16.9530  -66.7110 O.2    86  MET86      -0.2718
     63  CB       -66.1120  -16.1150  -64.5800 C.3    86  MET86       0.0401
     64  CG       -67.4200  -15.3900  -64.3550 C.3    86  MET86       0.0596
     65  SD       -68.4260  -16.0870  -62.9900 S.3    86  MET86      -0.1393
     66  CE       -68.8510  -17.6850  -63.6780 C.3    86  MET86       0.0692
     67  N        -63.1470  -15.6000  -64.9440 N.am   87  GLU87      -0.1966
     68  CA       -61.7770  -15.9920  -64.7340 C.3    87  GLU87       0.1733
     69  C        -61.7260  -17.4880  -64.3970 C.2    87  GLU87       0.2616
     70  O        -62.4810  -17.9590  -63.4970 O.2    87  GLU87      -0.2715
     71  CB       -61.2270  -15.1820  -63.5640 C.3    87  GLU87       0.0429
     72  CG       -59.7450  -15.3650  -63.2550 C.3    87  GLU87       0.1163
     73  CD       -59.2950  -14.3780  -62.1630 C.2    87  GLU87       0.3649
     74  OE1      -60.1590  -13.6230  -61.6260 O.co2  87  GLU87      -0.2457
     75  OE2      -58.0780  -14.3100  -61.8710 O.co2  87  GLU87      -0.2457
     76  N        -60.7970  -18.2080  -65.0380 N.am   88  TYR88      -0.1960
     77  CA       -60.5410  -19.6050  -64.7450 C.3    88  TYR88       0.1771
     78  C        -59.4180  -19.7350  -63.7180 C.2    88  TYR88       0.2620
     79  O        -58.3930  -19.1320  -63.8400 O.2    88  TYR88      -0.2715
     80  CB       -60.1660  -20.3770  -66.0080 C.3    88  TYR88       0.0574
     81  CG       -59.8760  -21.8320  -65.7820 C.ar   88  TYR88      -0.0198
     82  CD1      -60.8840  -22.7010  -65.4240 C.ar   88  TYR88      -0.0009
     83  CD2      -58.5950  -22.3400  -65.8920 C.ar   88  TYR88      -0.0009
     84  CE1      -60.6400  -24.0580  -65.2340 C.ar   88  TYR88       0.0417
     85  CE2      -58.3260  -23.6940  -65.6890 C.ar   88  TYR88       0.0417
     86  CZ       -59.3530  -24.5490  -65.3840 C.ar   88  TYR88       0.1957
     87  OH       -59.1090  -25.8570  -65.1900 O.3    88  TYR88      -0.2866
     88  N        -59.6550  -20.5620  -62.7130 N.am   89  CYS89      -0.1954
     89  CA       -58.7090  -20.8610  -61.6490 C.3    89  CYS89       0.1843
     90  C        -58.0910  -22.2270  -61.9190 C.2    89  CYS89       0.2625
     91  O        -58.7230  -23.2220  -61.7470 O.2    89  CYS89      -0.2714
     92  CB       -59.4100  -20.7770  -60.3000 C.3    89  CYS89       0.0997
     93  SG       -59.9300  -19.0740  -59.9390 S.3    89  CYS89      -0.0797
     94  N        -56.8310  -22.2270  -62.3530 N.am   90  ASN90      -0.1972
     95  CA       -56.2050  -23.4190  -62.9370 C.3    90  ASN90       0.1688
     96  C        -55.8390  -24.4330  -61.8420 C.2    90  ASN90       0.2292
     97  O        -55.4210  -25.5370  -62.1730 O.2    90  ASN90      -0.2864
     98  CB       -54.9940  -23.0460  -63.8090 C.3    90  ASN90       0.1181
     99  CG       -53.8730  -22.3750  -63.0150 C.2    90  ASN90       0.2629
    100  OD1      -53.9450  -22.2180  -61.8050 O.2    90  ASN90      -0.2716
    101  ND2      -52.7640  -22.1190  -63.6650 N.am   90  ASN90      -0.0877
    102  N        -58.0410  -25.4580  -59.3880 N.3    92  GLY92      -0.1210
    103  CA       -59.2260  -26.0270  -58.7740 C.3    92  GLY92       0.1956
    104  C        -59.6250  -25.3010  -57.4860 C.2    92  GLY92       0.2611
    105  O        -59.3320  -24.1120  -57.3100 O.2    92  GLY92      -0.2717
    106  N        -60.2940  -26.0260  -56.5820 N.am   93  ASP93      -0.1973
    107  CA       -60.8250  -25.4470  -55.3940 C.3    93  ASP93       0.1709
    108  C        -59.9840  -25.8740  -54.1760 C.2    93  ASP93       0.2293
    109  O        -59.0860  -26.6960  -54.2580 O.2    93  ASP93      -0.2864
    110  CB       -62.3100  -25.7660  -55.2490 C.3    93  ASP93       0.1436
    111  CG       -62.6090  -27.2560  -55.1080 C.2    93  ASP93       0.3671
    112  OD1      -61.6890  -27.9980  -54.7550 O.co2  93  ASP93      -0.2456
    113  OD2      -63.7580  -27.6610  -55.4320 O.co2  93  ASP93      -0.2456
    114  N        -59.9670  -29.5710  -53.3270 N.3    96  ASP96      -0.1239
    115  CA       -59.0340  -30.3770  -54.1050 C.3    96  ASP96       0.1674
    116  C        -57.6290  -30.2720  -53.5220 C.2    96  ASP96       0.2266
    117  O        -56.9100  -31.2580  -53.4380 O.2    96  ASP96      -0.2867
    118  CB       -58.9410  -29.9000  -55.5610 C.3    96  ASP96       0.1410
    119  CG       -60.2280  -29.9730  -56.3540 C.2    96  ASP96       0.3668
    120  OD1      -61.0550  -30.8570  -56.0730 O.co2  96  ASP96      -0.2456
    121  OD2      -60.3590  -29.1520  -57.2960 O.co2  96  ASP96      -0.2456
    122  N        -65.3830  -25.5840  -51.7270 N.3   136  GLN136     -0.1231
    123  CA       -65.7160  -25.8200  -53.1360 C.3   136  GLN136      0.1698
    124  C        -65.7950  -24.5010  -53.9210 C.2   136  GLN136      0.2592
    125  O        -65.8210  -24.5670  -55.1730 O.2   136  GLN136     -0.2718
    126  CB       -67.0250  -26.6000  -53.2520 C.3   136  GLN136      0.0381
    127  CG       -66.9030  -28.0610  -52.8390 C.3   136  GLN136      0.0905
    128  CD       -66.8120  -28.3180  -51.3510 C.2   136  GLN136      0.2608
    129  OE1      -67.2360  -27.5120  -50.4970 O.2   136  GLN136     -0.2717
    130  NE2      -66.2710  -29.4830  -51.0240 N.am  136  GLN136     -0.0878
    131  N        -65.8660  -23.3330  -53.2400 N.am  137  ASN137     -0.1974
    132  CA       -65.9330  -22.0680  -53.9910 C.3   137  ASN137      0.1688
    133  C        -64.8540  -21.0770  -53.5520 C.2   137  ASN137      0.2292
    134  O        -64.8760  -19.9160  -53.9120 O.2   137  ASN137     -0.2864
    135  CB       -67.3450  -21.4980  -54.0150 C.3   137  ASN137      0.1181
    136  CG       -67.9450  -21.3040  -52.6360 C.2   137  ASN137      0.2629
    137  OD1      -67.2200  -21.0140  -51.6620 O.2   137  ASN137     -0.2716
    138  ND2      -69.2540  -21.4620  -52.5560 N.am  137  ASN137     -0.0877
    139  N        -61.1770  -20.7900  -54.5870 N.3   139  LEU139     -0.1245
    140  CA       -60.4790  -21.3640  -55.7090 C.3   139  LEU139      0.1561
    141  C        -59.0070  -20.9290  -55.6840 C.2   139  LEU139      0.2260
    142  O        -58.6540  -19.8700  -55.1010 O.2   139  LEU139     -0.2867
    143  CB       -61.1560  -20.9190  -57.0100 C.3   139  LEU139      0.0270
    144  CG       -62.6490  -21.1880  -57.0980 C.3   139  LEU139      0.0019
    145  CD1      -63.1890  -20.8450  -58.4940 C.3   139  LEU139      0.0001
    146  CD2      -62.9720  -22.6300  -56.7080 C.3   139  LEU139      0.0001
    147  N        -65.4410  -17.4140  -55.4670 N.3   153  ALA153     -0.1231
    148  CA       -66.3740  -17.6050  -56.5650 C.3   153  ALA153      0.1694
    149  C        -67.7700  -17.9460  -56.0220 C.2   153  ALA153      0.2592
    150  O        -67.9560  -18.2340  -54.8120 O.2   153  ALA153     -0.2718
    151  CB       -65.8870  -18.7180  -57.4660 C.3   153  ALA153      0.0304
    152  N        -68.6980  -18.0440  -56.9790 N.am  154  ASP154     -0.1974
    153  CA       -70.0740  -18.5250  -56.8570 C.3   154  ASP154      0.1709
    154  C        -70.8580  -17.6210  -55.9140 C.2   154  ASP154      0.2293
    155  O        -71.1070  -17.9970  -54.7690 O.2   154  ASP154     -0.2864
    156  CB       -70.1760  -19.9730  -56.3970 C.3   154  ASP154      0.1436
    157  CG       -71.6260  -20.4750  -56.4930 C.2   154  ASP154      0.3671
    158  OD1      -72.5060  -19.7530  -57.0830 O.co2 154  ASP154     -0.2456
    159  OD2      -71.8800  -21.5550  -56.0620 O.co2 154  ASP154     -0.2456
@<TRIPOS>BOND
     1    46    45    2
     2    38    39    1
     3    40    41    2
     4    40    39    1
     5    43    44    1
     6    45    44    1
     7    59    60    1
     8    39    42    1
     9    62    61    2
    10    44    47    1
    11    80    81    1
    12    80    77    1
    13    83    81   ar
    14    83    85   ar
    15    61    60    1
    16    61    67   am
    17    33    34    2
    18    33    32    1
    19    60    63    1
    20    81    82   ar
    21    85    86   ar
    22    82    84   ar
    23    86    84   ar
    24    86    87    1
    25    32    31    1
    26    32    35    1
    27    76    77    1
    28    76    69   am
    29    47    48    1
    30    67    68    1
    31    77    78    1
    32    68    69    1
    33    68    71    1
    34     6     5    1
    35     1     2    1
    36    63    64    1
    37    69    70    2
    38    64    65    1
    39    36    35    1
    40     7     5    1
    41    48    49    1
    42    35    37    1
    43    79    78    2
    44    98    99    1
    45    98    95    1
    46    78    88   am
    47    66    65    1
    48   101    99   am
    49     5     2    1
    50    71    72    1
    51     2     3    1
    52    72    73    1
    53    28    27    1
    54    28    29    2
    55    99   100    2
    56    95    94    1
    57    95    96    1
    58    27    26    1
    59    27    30    1
    60    11    10    2
    61    88    89    1
    62    49    50    1
    63     8     3   am
    64     8     9    1
    65    94    90   am
    66     3     4    2
    67    97    96    2
    68    73    75   ar
    69    73    74   ar
    70    90    91    2
    71    90    89    1
    72    89    92    1
    73    10     9    1
    74    10    12   am
    75    50    51    1
    76    16    13    1
    77    16    17    1
    78    13    12    1
    79    13    14    1
    80    17    18   ar
    81    17    19   ar
    82    54    55    2
    83    54    53    1
    84    18    20   ar
    85    92    93    1
    86    56    53    1
    87    56    58    1
    88    56    57    1
    89    25    24    2
    90    19    21   ar
    91    53    52    1
    92    20    21   ar
    93    22    14   am
    94    22    23    1
    95    14    15    2
    96   102   103    1
    97    24    23    1
    98   103   104    1
    99   145   144    1
   100   104   105    2
   101   104   106   am
   102   151   148    1
   103   121   119   ar
   104   144   143    1
   105   144   146    1
   106   158   157   ar
   107   143   140    1
   108   152   153    1
   109   152   149   am
   110   153   156    1
   111   153   154    1
   112   106   107    1
   113   148   149    1
   114   148   147    1
   115   157   156    1
   116   157   159   ar
   117   119   120   ar
   118   119   118    1
   119   149   150    2
   120   154   155    2
   121   140   141    1
   122   140   139    1
   123   141   142    2
   124   118   115    1
   125   113   111   ar
   126   107   110    1
   127   107   108    1
   128   110   111    1
   129   125   124    2
   130   111   112   ar
   131   109   108    2
   132   115   116    1
   133   115   114    1
   134   135   132    1
   135   135   136    1
   136   132   133    1
   137   132   131    1
   138   124   131   am
   139   124   123    1
   140   134   133    2
   141   116   117    2
   142   126   123    1
   143   126   127    1
   144   123   122    1
   145   127   128    1
   146   136   138   am
   147   136   137    2
   148   128   130   am
   149   128   129    2
