@<TRIPOS>MOLECULE
tmp/6qbsB00.pdb
 148 143 0 0 0
SMALL
GASTEIGER

@<TRIPOS>ATOM
      1  N        -38.8150    3.2100   10.4050 N.3    19  GLN19      -0.1245
      2  CA       -39.0340    4.1940    9.3630 C.3    19  GLN19       0.1566
      3  C        -39.8480    3.6050    8.2330 C.2    19  GLN19       0.2260
      4  O        -40.3760    4.3470    7.4040 O.2    19  GLN19      -0.2867
      5  CB       -37.6950    4.6170    8.8110 C.3    19  GLN19       0.0367
      6  CG       -37.0090    3.4970    8.0780 C.3    19  GLN19       0.0905
      7  CD       -35.5850    3.8430    7.6840 C.2    19  GLN19       0.2608
      8  OE1      -34.8070    4.4540    8.4350 O.2    19  GLN19      -0.2717
      9  NE2      -35.2020    3.4170    6.5110 N.am   19  GLN19      -0.0878
     10  N        -37.1370    6.8520    3.2240 N.3    23  GLY23      -0.1225
     11  CA       -35.7280    7.0870    3.5660 C.3    23  GLY23       0.1811
     12  C        -35.6520    8.2310    4.5900 C.2    23  GLY23       0.2280
     13  O        -35.0360    9.2740    4.3590 O.2    23  GLY23      -0.2866
     14  N        -34.4570    7.9280    7.8220 N.3    25  CYS25      -0.1221
     15  CA       -33.4550    7.6880    8.9100 C.3    25  CYS25       0.1808
     16  C        -32.9800    9.0220    9.5130 C.2    25  CYS25       0.2601
     17  O        -32.8150    9.1240   10.7220 O.2    25  CYS25      -0.2717
     18  CB       -32.2730    6.8910    8.4000 C.3    25  CYS25       0.0970
     19  SG       -31.4200    7.6350    7.0010 S.3    25  CYS25      -0.0800
     20  N        -32.6600   10.0020    8.6330 N.am   26  TRP26      -0.1976
     21  CA       -32.1870   11.3180    9.1060 C.3    26  TRP26       0.1640
     22  C        -33.1470   11.9720   10.0380 C.2    26  TRP26       0.2290
     23  O        -32.7250   12.6750   10.9410 O.2    26  TRP26      -0.2864
     24  CB       -31.8930   12.2020    7.8910 C.3    26  TRP26       0.0576
     25  CG       -33.1080   12.4720    7.0650 C.ar   26  TRP26       0.0006
     26  CD1      -33.5560   11.7670    5.9790 C.ar   26  TRP26       0.0946
     27  CD2      -34.0340   13.5530    7.2410 C.ar   26  TRP26       0.0152
     28  NE1      -34.7020   12.3590    5.4730 N.ar   26  TRP26      -0.2442
     29  CE2      -35.0160   13.4480    6.2250 C.ar   26  TRP26       0.0810
     30  CE3      -34.1380   14.5940    8.1710 C.ar   26  TRP26       0.0012
     31  CZ2      -36.0810   14.3510    6.1070 C.ar   26  TRP26       0.0191
     32  CZ3      -35.2030   15.4840    8.0580 C.ar   26  TRP26       0.0001
     33  CH2      -36.1520   15.3610    7.0350 C.ar   26  TRP26       0.0015
     34  N        -37.5170   21.7170    4.1570 N.3    58  SER58      -0.1202
     35  CA       -37.3600   21.9450    2.7390 C.3    58  SER58       0.2020
     36  C        -35.9230   21.7560    2.2360 C.2    58  SER58       0.2619
     37  O        -35.7310   21.5110    1.0620 O.2    58  SER58      -0.2717
     38  CB       -37.9260   23.3280    2.4010 C.3    58  SER58       0.2103
     39  OG       -37.2090   24.4200    2.9340 O.3    58  SER58      -0.2182
     40  N        -34.8910   21.8790    3.1280 N.am   59  GLU59      -0.1965
     41  CA       -33.5010   21.6230    2.6650 C.3    59  GLU59       0.1733
     42  C        -33.2700   20.1630    2.4320 C.2    59  GLU59       0.2616
     43  O        -32.3310   19.8240    1.6930 O.2    59  GLU59      -0.2715
     44  CB       -32.4410   22.0770    3.6700 C.3    59  GLU59       0.0429
     45  CG       -32.1450   23.5640    3.7500 C.3    59  GLU59       0.1163
     46  CD       -30.9560   23.8130    4.6360 C.2    59  GLU59       0.3649
     47  OE1      -31.0860   23.6430    5.8280 O.co2  59  GLU59      -0.2457
     48  OE2      -29.8180   23.9590    4.0900 O.co2  59  GLU59      -0.2457
     49  N        -34.1090   19.2530    2.9950 N.am   60  ASN60      -0.1958
     50  CA       -33.8960   17.8470    2.7920 C.3    60  ASN60       0.1819
     51  C        -34.8150   17.3600    1.7090 C.2    60  ASN60       0.2621
     52  O        -35.6040   18.1720    1.2000 O.2    60  ASN60      -0.2715
     53  CB       -34.1190   17.0430    4.0630 C.3    60  ASN60       0.1195
     54  CG       -32.9240   17.1440    4.9840 C.2    60  ASN60       0.2630
     55  OD1      -31.7900   17.3090    4.4970 O.2    60  ASN60      -0.2716
     56  ND2      -33.0950   16.9740    6.2860 N.am   60  ASN60      -0.0877
     57  N        -34.7590   16.0890    1.3800 N.am   61  ASP61      -0.1971
     58  CA       -35.6370   15.5680    0.3330 C.3    61  ASP61       0.1709
     59  C        -36.6720   14.6160    0.8210 C.2    61  ASP61       0.2293
     60  O        -37.1010   13.6970    0.1040 O.2    61  ASP61      -0.2864
     61  CB       -34.7780   14.9540   -0.7760 C.3    61  ASP61       0.1436
     62  CG       -35.4990   14.7570   -2.1090 C.2    61  ASP61       0.3671
     63  OD1      -35.3490   13.6630   -2.7130 O.co2  61  ASP61      -0.2456
     64  OD2      -36.1960   15.6910   -2.5460 O.co2  61  ASP61      -0.2456
     65  N        -36.8330   10.8990    0.3450 N.3    64  GLY64      -0.1210
     66  CA       -35.7160   10.6750   -0.5450 C.3    64  GLY64       0.1956
     67  C        -34.3840   10.7700    0.1680 C.2    64  GLY64       0.2612
     68  O        -33.3490   10.4320   -0.4050 O.2    64  GLY64      -0.2717
     69  N        -34.3870   11.2440    1.4170 N.am   65  GLY65      -0.1942
     70  CA       -33.1230   11.3600    2.1220 C.3    65  GLY65       0.2014
     71  C        -32.8150   12.7580    2.5840 C.2    65  GLY65       0.2639
     72  O        -33.5740   13.7020    2.3230 O.2    65  GLY65      -0.2714
     73  N        -31.8350   12.8490    3.4570 N.am   66  GLY66      -0.1939
     74  CA       -31.4830   14.1310    3.9810 C.3    66  GLY66       0.2014
     75  C        -30.4360   14.0880    5.0830 C.2    66  GLY66       0.2639
     76  O        -29.8400   13.0540    5.3000 O.2    66  GLY66      -0.2714
     77  N        -30.1650   15.2500    5.6880 N.am   67  TYR67      -0.1959
     78  CA       -29.1650   15.3520    6.7920 C.3    67  TYR67       0.1771
     79  C        -29.7590   15.8480    8.0290 C.2    67  TYR67       0.2619
     80  O        -30.7270   16.6150    8.0150 O.2    67  TYR67      -0.2715
     81  CB       -28.1020   16.3800    6.3920 C.3    67  TYR67       0.0574
     82  CG       -27.2820   15.8990    5.2210 C.ar   67  TYR67      -0.0198
     83  CD1      -26.3180   14.9290    5.3840 C.ar   67  TYR67      -0.0009
     84  CD2      -27.4820   16.4220    3.9500 C.ar   67  TYR67      -0.0009
     85  CE1      -25.5660   14.4690    4.3130 C.ar   67  TYR67       0.0417
     86  CE2      -26.7150   15.9800    2.8720 C.ar   67  TYR67       0.0417
     87  CZ       -25.7660   15.0000    3.0650 C.ar   67  TYR67       0.1957
     88  OH       -25.0050   14.5450    2.0140 O.3    67  TYR67      -0.2866
     89  N        -29.1600   15.4380    9.1580 N.am   68  MET68      -0.1977
     90  CA       -29.6560   15.8540   10.4450 C.3    68  MET68       0.1605
     91  C        -29.4130   17.3270   10.6720 C.2    68  MET68       0.2287
     92  O        -30.2510   17.9760   11.3080 O.2    68  MET68      -0.2864
     93  CB       -28.9280   15.0610   11.5470 C.3    68  MET68       0.0413
     94  CG       -29.2950   13.6200   11.5330 C.3    68  MET68       0.0598
     95  SD       -28.3840   12.7350   10.2560 S.3    68  MET68      -0.1393
     96  CE       -26.8040   12.3620   11.1570 C.3    68  MET68       0.0692
     97  N        -29.6140   19.8640    8.6710 N.3    70  ASN70      -0.1240
     98  CA       -30.7060   20.6300    8.0810 C.3    70  ASN70       0.1653
     99  C        -31.9720   20.5250    8.9770 C.2    70  ASN70       0.2266
    100  O        -32.7840   21.4240    9.0060 O.2    70  ASN70      -0.2867
    101  CB       -31.0460   19.9590    6.7740 C.3    70  ASN70       0.1155
    102  CG       -30.1100   20.3080    5.6580 C.2    70  ASN70       0.2627
    103  OD1      -29.3340   21.2520    5.7990 O.2    70  ASN70      -0.2716
    104  ND2      -30.0730   19.5760    4.5870 N.am   70  ASN70      -0.0877
    105  N        -23.8160    9.5550   11.3100 N.3   134  ALA134     -0.1245
    106  CA       -23.9560    8.9190   10.0090 C.3   134  ALA134      0.1562
    107  C        -23.0170    7.7440    9.7830 C.2   134  ALA134      0.2260
    108  O        -21.8680    7.8160   10.2410 O.2   134  ALA134     -0.2867
    109  CB       -23.8280    9.9370    8.8600 C.3   134  ALA134      0.0290
    110  N        -21.1050    7.3960    3.3570 N.3   160  LEU160     -0.1231
    111  CA       -22.0820    7.5600    4.4160 C.3   160  LEU160      0.1693
    112  C        -23.4520    7.5230    3.8180 C.2   160  LEU160      0.2592
    113  O        -23.7110    8.3460    2.9390 O.2   160  LEU160     -0.2718
    114  CB       -21.8190    8.9050    5.0540 C.3   160  LEU160      0.0284
    115  CG       -20.5140    9.0640    5.7780 C.3   160  LEU160      0.0019
    116  CD1      -20.3720   10.4560    6.3600 C.3   160  LEU160      0.0001
    117  CD2      -20.4150    8.0180    6.8560 C.3   160  LEU160      0.0001
    118  N        -24.3490    6.6810    4.2890 N.am  161  ASN161     -0.1960
    119  CA       -25.6360    6.5810    3.6330 C.3   161  ASN161      0.1819
    120  C        -26.7620    6.3570    4.5410 C.2   161  ASN161      0.2621
    121  O        -27.9090    6.3100    4.0910 O.2   161  ASN161     -0.2715
    122  CB       -25.6200    5.4340    2.6000 C.3   161  ASN161      0.1195
    123  CG       -24.9620    4.1590    3.1560 C.2   161  ASN161      0.2630
    124  OD1      -25.4640    3.6100    4.1410 O.2   161  ASN161     -0.2716
    125  ND2      -23.8700    3.6030    2.5410 N.am  161  ASN161     -0.0877
    126  N        -26.4900    6.2620    5.8780 N.am  162  HIS162     -0.1959
    127  CA       -27.5760    6.0380    6.7700 C.3   162  HIS162      0.1787
    128  C        -27.3610    6.9480    8.0140 C.2   162  HIS162      0.2620
    129  O        -26.2420    7.3390    8.2580 O.2   162  HIS162     -0.2715
    130  CB       -27.6030    4.5430    7.1960 C.3   162  HIS162      0.0785
    131  CG       -28.8450    4.1090    7.8880 C.ar  162  HIS162      0.0821
    132  ND1      -30.1020    4.4180    7.4270 N.ar  162  HIS162     -0.2267
    133  CD2      -29.0150    3.4090    9.0340 C.ar  162  HIS162      0.1154
    134  CE1      -31.0050    3.9400    8.2710 C.ar  162  HIS162      0.1986
    135  NE2      -30.3680    3.3310    9.2530 N.ar  162  HIS162     -0.2212
    136  N        -28.4440    7.2890    8.7120 N.am  163  ALA163     -0.1977
    137  CA       -28.3300    8.1260    9.9000 C.3   163  ALA163      0.1597
    138  C        -28.8690    7.3150   11.0580 C.2   163  ALA163      0.2287
    139  O        -29.9010    6.6750   10.9140 O.2   163  ALA163     -0.2864
    140  CB       -29.2070    9.3770    9.7150 C.3   163  ALA163      0.0319
    141  N        -19.6890   12.4870   10.5240 N.3   209  LEU209     -0.1245
    142  CA       -20.7740   13.4650   10.4060 C.3   209  LEU209      0.1561
    143  C        -21.6490   13.4050   11.6180 C.2   209  LEU209      0.2260
    144  O        -22.8290   13.0600   11.5410 O.2   209  LEU209     -0.2867
    145  CB       -21.5580   13.0820    9.1130 C.3   209  LEU209      0.0270
    146  CG       -22.2750   14.2820    8.5100 C.3   209  LEU209      0.0019
    147  CD1      -21.2680   15.3660    8.0300 C.3   209  LEU209      0.0001
    148  CD2      -22.9920   13.7500    7.3340 C.3   209  LEU209      0.0001
@<TRIPOS>BOND
     1    63    62   ar
     2    64    62   ar
     3    62    61    1
     4    61    58    1
     5    66    67    1
     6    66    65    1
     7    68    67    2
     8    60    59    2
     9    67    69   am
    10    58    59    1
    11    58    57    1
    12    37    36    2
    13    52    51    2
    14    57    51   am
    15    69    70    1
    16    43    42    2
    17    51    50    1
    18    88    87    1
    19    70    71    1
    20    36    35    1
    21    36    40   am
    22    72    71    2
    23    38    35    1
    24    38    39    1
    25    42    41    1
    26    42    49   am
    27   125   123   am
    28    71    73   am
    29   122   123    1
    30   122   119    1
    31    41    40    1
    32    41    44    1
    33    35    34    1
    34    50    49    1
    35    50    53    1
    36    86    87   ar
    37    86    84   ar
    38   113   112    2
    39    87    85   ar
    40   123   124    2
    41    10    11    1
    42   110   111    1
    43    73    74    1
    44    11    12    1
    45   119   118    1
    46   119   120    1
    47    44    45    1
    48    45    46    1
    49   112   118   am
    50   112   111    1
    51    84    82   ar
    52    74    75    1
    53    53    54    1
    54    48    46   ar
    55   121   120    2
    56    85    83   ar
    57    13    12    2
    58   111   114    1
    59    55    54    2
    60   120   126   am
    61   104   102   am
    62    46    47   ar
    63    54    56   am
    64   114   115    1
    65    75    76    2
    66    75    77   am
    67    82    83   ar
    68    82    81    1
    69    28    26   ar
    70    28    29   ar
    71   102   103    2
    72   102   101    1
    73    77    78    1
    74   115   116    1
    75   115   117    1
    76   126   127    1
    77    26    25   ar
    78    31    29   ar
    79    31    33   ar
    80    29    27   ar
    81    81    78    1
    82     9     7   am
    83   127   130    1
    84   127   128    1
    85   101    98    1
    86    78    79    1
    87    19    18    1
    88    33    32   ar
    89    25    27   ar
    90    25    24    1
    91   130   131    1
    92    27    30   ar
    93   148   146    1
    94     4     3    2
    95   132   131   ar
    96   132   134   ar
    97     7     6    1
    98     7     8    2
    99    14    15    1
   100   131   133   ar
   101    24    21    1
   102   128   129    2
   103   128   136   am
   104    80    79    2
   105    79    89   am
   106   147   146    1
   107    32    30   ar
   108     6     5    1
   109    98    97    1
   110    98    99    1
   111     3     2    1
   112   134   135   ar
   113    18    15    1
   114   146   145    1
   115    20    21    1
   116    20    16   am
   117   136   137    1
   118     5     2    1
   119   109   106    1
   120    15    16    1
   121    99   100    2
   122   133   135   ar
   123    21    22    1
   124   145   142    1
   125    89    90    1
   126     2     1    1
   127    16    17    2
   128   140   137    1
   129   107   106    1
   130   107   108    2
   131   137   138    1
   132   106   105    1
   133    22    23    2
   134    95    96    1
   135    95    94    1
   136   142   141    1
   137   142   143    1
   138    90    91    1
   139    90    93    1
   140    91    92    2
   141   139   138    2
   142    94    93    1
   143   144   143    2
