@<TRIPOS>MOLECULE
tmp/6qd5A07.pdb
 109 106 0 0 0
SMALL
GASTEIGER

@<TRIPOS>ATOM
      1  N        139.2690   81.2310  -14.1280 N.3   276  TRP276     -0.1227
      2  CA       139.2540   81.9910  -12.8860 C.3   276  TRP276      0.1737
      3  C        137.8270   82.1780  -12.3750 C.2   276  TRP276      0.2595
      4  O        137.5870   82.1180  -11.1560 O.2   276  TRP276     -0.2718
      5  CB       140.0070   83.3170  -13.0600 C.3   276  TRP276      0.0564
      6  CG       139.3650   84.4200  -13.8550 C.ar  276  TRP276      0.0003
      7  CD1      139.6870   84.7930  -15.1260 C.ar  276  TRP276      0.0946
      8  CD2      138.3530   85.3510  -13.4070 C.ar  276  TRP276      0.0152
      9  NE1      138.9220   85.8680  -15.5120 N.ar  276  TRP276     -0.2442
     10  CE2      138.1020   86.2390  -14.4790 C.ar  276  TRP276      0.0810
     11  CE3      137.6230   85.5060  -12.2150 C.ar  276  TRP276      0.0012
     12  CZ2      137.1590   87.2750  -14.3980 C.ar  276  TRP276      0.0191
     13  CZ3      136.6700   86.5360  -12.1390 C.ar  276  TRP276      0.0001
     14  CH2      136.4470   87.4010  -13.2250 C.ar  276  TRP276      0.0015
     15  N        136.8590   82.2880  -13.2870 N.am  277  GLN277     -0.1979
     16  CA       135.4590   82.4120  -12.8820 C.3   277  GLN277      0.1601
     17  C        134.9690   81.1590  -12.1660 C.2   277  GLN277      0.2287
     18  O        134.3110   81.2520  -11.1180 O.2   277  GLN277     -0.2864
     19  CB       134.5690   82.7150  -14.0910 C.3   277  GLN277      0.0394
     20  CG       134.8130   84.0860  -14.7320 C.3   277  GLN277      0.0908
     21  CD       135.7710   84.0070  -15.9120 C.2   277  GLN277      0.2608
     22  OE1      136.5630   83.0740  -16.0120 O.2   277  GLN277     -0.2717
     23  NE2      135.6900   84.9760  -16.8140 N.am  277  GLN277     -0.0878
     24  N        136.5180   80.8200   -8.6340 N.3   280  LEU280     -0.1231
     25  CA       135.7620   81.5630   -7.6220 C.3   280  LEU280      0.1693
     26  C        134.4180   80.8910   -7.3320 C.2   280  LEU280      0.2591
     27  O        134.0060   80.7780   -6.1670 O.2   280  LEU280     -0.2718
     28  CB       135.5780   83.0270   -8.0540 C.3   280  LEU280      0.0284
     29  CG       136.9070   83.7870   -8.2030 C.3   280  LEU280      0.0019
     30  CD1      136.7110   85.2170   -8.6920 C.3   280  LEU280      0.0001
     31  CD2      137.7330   83.7660   -6.9020 C.3   280  LEU280      0.0001
     32  N        133.7350   80.4110   -8.3760 N.am  281  LEU281     -0.1980
     33  CA       132.4760   79.7000   -8.1620 C.3   281  LEU281      0.1596
     34  C        132.6640   78.4740   -7.2720 C.2   281  LEU281      0.2287
     35  O        131.8100   78.1690   -6.4370 O.2   281  LEU281     -0.2864
     36  CB       131.8700   79.2900   -9.5040 C.3   281  LEU281      0.0297
     37  CG       130.5260   78.5720   -9.4390 C.3   281  LEU281      0.0022
     38  CD1      129.4760   79.5240   -8.8790 C.3   281  LEU281      0.0001
     39  CD2      130.1220   78.0670  -10.8180 C.3   281  LEU281      0.0001
     40  N        133.0130   79.6250   -3.6770 N.3   284  GLY284     -0.1225
     41  CA       131.6680   79.9020   -3.1980 C.3   284  GLY284      0.1811
     42  C        130.9090   78.6310   -2.8710 C.2   284  GLY284      0.2280
     43  O        130.2650   78.5330   -1.8280 O.2   284  GLY284     -0.2866
     44  N        132.1480   76.9980    0.3960 N.3   287  LEU287     -0.1231
     45  CA       131.5760   77.7000    1.5520 C.3   287  LEU287      0.1693
     46  C        130.0960   77.3590    1.7570 C.2   287  LEU287      0.2592
     47  O        129.6610   77.0020    2.8700 O.2   287  LEU287     -0.2718
     48  CB       131.7250   79.2030    1.3590 C.3   287  LEU287      0.0284
     49  CG       132.7070   80.0050    2.1810 C.3   287  LEU287      0.0019
     50  CD1      132.2820   81.4640    2.0830 C.3   287  LEU287      0.0001
     51  CD2      132.7430   79.5160    3.6170 C.3   287  LEU287      0.0001
     52  N        129.2990   77.5230    0.6940 N.am  288  PHE288     -0.1976
     53  CA       127.8780   77.1890    0.7410 C.3   288  PHE288      0.1639
     54  C        127.6620   75.7810    1.2730 C.2   288  PHE288      0.2290
     55  O        126.7610   75.5450    2.0840 O.2   288  PHE288     -0.2864
     56  CB       127.2810   77.3360   -0.6610 C.3   288  PHE288      0.0560
     57  CG       125.8430   76.8910   -0.7780 C.ar  288  PHE288     -0.0200
     58  CD1      125.5120   75.5370   -0.9210 C.ar  288  PHE288     -0.0042
     59  CD2      124.8210   77.8240   -0.8070 C.ar  288  PHE288     -0.0042
     60  CE1      124.1780   75.1390   -1.0570 C.ar  288  PHE288     -0.0003
     61  CE2      123.4740   77.4250   -0.9560 C.ar  288  PHE288     -0.0003
     62  CZ       123.1550   76.0910   -1.0590 C.ar  288  PHE288     -0.0000
     63  N        128.0980   75.4910    5.0040 N.3   291  TYR291     -0.1241
     64  CA       126.9160   75.9740    5.7300 C.3   291  TYR291      0.1605
     65  C        125.7650   74.9670    5.6500 C.2   291  TYR291      0.2264
     66  O        125.1150   74.6710    6.6600 O.2   291  TYR291     -0.2867
     67  CB       126.4940   77.3480    5.1970 C.3   291  TYR291      0.0534
     68  CG       127.4730   78.4370    5.5860 C.ar  291  TYR291     -0.0201
     69  CD1      127.8010   78.6590    6.9290 C.ar  291  TYR291     -0.0009
     70  CD2      128.0810   79.2260    4.6200 C.ar  291  TYR291     -0.0009
     71  CE1      128.7060   79.6450    7.2920 C.ar  291  TYR291      0.0417
     72  CE2      128.9680   80.2130    4.9700 C.ar  291  TYR291      0.0417
     73  CZ       129.2820   80.4170    6.3020 C.ar  291  TYR291      0.1957
     74  OH       130.1790   81.3910    6.6310 O.3   291  TYR291     -0.2866
     75  N        124.6680   73.5830   -7.7420 N.3   319  PHE319     -0.1241
     76  CA       125.5430   74.4710   -8.5000 C.3   319  PHE319      0.1605
     77  C        125.7290   74.0030   -9.9450 C.2   319  PHE319      0.2264
     78  O        125.8620   74.8420  -10.8450 O.2   319  PHE319     -0.2867
     79  CB       126.8820   74.6120   -7.7860 C.3   319  PHE319      0.0534
     80  CG       126.8630   75.6410   -6.6940 C.ar  319  PHE319     -0.0203
     81  CD1      126.1110   75.4290   -5.5320 C.ar  319  PHE319     -0.0042
     82  CD2      127.5560   76.8310   -6.8350 C.ar  319  PHE319     -0.0042
     83  CE1      126.0890   76.3670   -4.5240 C.ar  319  PHE319     -0.0003
     84  CE2      127.5300   77.7860   -5.8350 C.ar  319  PHE319     -0.0003
     85  CZ       126.8020   77.5560   -4.6740 C.ar  319  PHE319     -0.0000
     86  N        127.2090   83.1500  -19.0840 N.3   326  ASN326     -0.1240
     87  CA       128.6340   83.4550  -19.0950 C.3   326  ASN326      0.1653
     88  C        129.3820   82.3190  -19.7830 C.2   326  ASN326      0.2266
     89  O        129.5180   81.2260  -19.2200 O.2   326  ASN326     -0.2867
     90  CB       129.1510   83.6460  -17.6710 C.3   326  ASN326      0.1155
     91  CG       130.5180   84.3100  -17.6350 C.2   326  ASN326      0.2627
     92  OD1      131.4090   83.9890  -18.4210 O.2   326  ASN326     -0.2716
     93  ND2      130.6770   85.2660  -16.7320 N.am  326  ASN326     -0.0877
     94  N        132.3830   81.7410  -20.0270 N.3   328  ASN328     -0.1225
     95  CA       133.5180   81.2380  -19.2590 C.3   328  ASN328      0.1785
     96  C        133.1260   80.3600  -18.0890 C.2   328  ASN328      0.2597
     97  O        134.0190   79.8390  -17.4100 O.2   328  ASN328     -0.2718
     98  CB       134.3490   82.4020  -18.7460 C.3   328  ASN328      0.1169
     99  CG       134.7560   83.3170  -19.8580 C.2   328  ASN328      0.2627
    100  OD1      135.4680   82.9060  -20.7630 O.2   328  ASN328     -0.2716
    101  ND2      134.2680   84.5470  -19.8300 N.am  328  ASN328     -0.0877
    102  N        131.8400   80.2140  -17.8020 N.am  329  ILE329     -0.1980
    103  CA       131.3810   79.3030  -16.7590 C.3   329  ILE329      0.1595
    104  C        130.7440   78.1430  -17.5070 C.2   329  ILE329      0.2287
    105  O        129.5890   78.2220  -17.9380 O.2   329  ILE329     -0.2864
    106  CB       130.4240   79.9850  -15.7720 C.3   329  ILE329      0.0276
    107  CG1      131.1550   81.1230  -15.0610 C.3   329  ILE329      0.0022
    108  CG2      129.8440   79.0060  -14.7470 C.3   329  ILE329      0.0022
    109  CD1      130.2190   82.0950  -14.3650 C.3   329  ILE329      0.0001
@<TRIPOS>BOND
     1   100    99    2
     2    94    95    1
     3    99   101   am
     4    99    98    1
     5    88    89    2
     6    88    87    1
     7    95    98    1
     8    95    96    1
     9    87    86    1
    10    87    90    1
    11    92    91    2
    12    96   102   am
    13    96    97    2
    14   105   104    2
    15   102   103    1
    16    90    91    1
    17    91    93   am
    18   104   103    1
    19    23    21   am
    20   103   106    1
    21    22    21    2
    22    21    20    1
    23   106   107    1
    24   106   108    1
    25     9     7   ar
    26     9    10   ar
    27     7     6   ar
    28   107   109    1
    29    20    19    1
    30    10    12   ar
    31    10     8   ar
    32    12    14   ar
    33     1     2    1
    34    19    16    1
    35     6     8   ar
    36     6     5    1
    37     8    11   ar
    38    15    16    1
    39    15     3   am
    40    14    13   ar
    41     5     2    1
    42     2     3    1
    43    16    17    1
    44     3     4    2
    45    11    13   ar
    46    17    18    2
    47    78    77    2
    48    39    37    1
    49    77    76    1
    50    36    37    1
    51    36    33    1
    52    37    38    1
    53    30    29    1
    54    24    25    1
    55    76    79    1
    56    76    75    1
    57    32    33    1
    58    32    26   am
    59    29    28    1
    60    29    31    1
    61    33    34    1
    62    28    25    1
    63    79    80    1
    64    25    26    1
    65    26    27    2
    66    34    35    2
    67    82    80   ar
    68    82    84   ar
    69    80    81   ar
    70    84    85   ar
    71    81    83   ar
    72    85    83   ar
    73    40    41    1
    74    41    42    1
    75    42    43    2
    76    62    60   ar
    77    62    61   ar
    78    60    58   ar
    79    61    59   ar
    80    58    57   ar
    81    59    57   ar
    82    57    56    1
    83    56    53    1
    84    44    45    1
    85    52    53    1
    86    52    46   am
    87    53    54    1
    88    54    55    2
    89    48    45    1
    90    48    49    1
    91    45    46    1
    92    46    47    2
    93    50    49    1
    94    49    51    1
    95    70    72   ar
    96    70    68   ar
    97    72    73   ar
    98    63    64    1
    99    67    68    1
   100    67    64    1
   101    68    69   ar
   102    65    64    1
   103    65    66    2
   104    73    74    1
   105    73    71   ar
   106    69    71   ar
