@<TRIPOS>MOLECULE
tmp/6qd5A01.pdb
 157 148 0 0 0
SMALL
GASTEIGER

@<TRIPOS>ATOM
      1  N        144.4880   59.4560  -14.8490 N.3    11  ASP11      -0.1239
      2  CA       143.5960   58.3200  -14.6550 C.3    11  ASP11       0.1674
      3  C        144.2120   57.0210  -15.1600 C.2    11  ASP11       0.2266
      4  O        143.5020   56.0170  -15.3120 O.2    11  ASP11      -0.2867
      5  CB       142.2460   58.5770  -15.3330 C.3    11  ASP11       0.1410
      6  CG       142.3850   59.0140  -16.7780 C.2    11  ASP11       0.3668
      7  OD1      143.5340   59.1670  -17.2520 O.co2  11  ASP11      -0.2456
      8  OD2      141.3370   59.2010  -17.4370 O.co2  11  ASP11      -0.2456
      9  N        137.7090   56.5880   -6.4030 N.3    38  GLN38      -0.1245
     10  CA       136.6220   57.4130   -6.9320 C.3    38  GLN38       0.1566
     11  C        135.8200   58.1060   -5.8430 C.2    38  GLN38       0.2260
     12  O        135.0350   58.9980   -6.1580 O.2    38  GLN38      -0.2867
     13  CB       135.6500   56.5860   -7.7930 C.3    38  GLN38       0.0367
     14  CG       136.1260   56.3150   -9.2110 C.3    38  GLN38       0.0905
     15  CD       135.9640   57.5070  -10.1650 C.2    38  GLN38       0.2608
     16  OE1      135.7110   58.6400   -9.7640 O.2    38  GLN38      -0.2717
     17  NE2      136.1160   57.2370  -11.4300 N.am   38  GLN38      -0.0878
     18  N        136.7490   61.3750   -6.5810 N.3    41  PHE41      -0.1241
     19  CA       136.6910   61.6220   -8.0220 C.3    41  PHE41       0.1605
     20  C        137.9600   61.2210   -8.7510 C.2    41  PHE41       0.2264
     21  O        138.1580   61.6170   -9.8990 O.2    41  PHE41      -0.2867
     22  CB       136.3840   63.0910   -8.3540 C.3    41  PHE41       0.0534
     23  CG       135.2580   63.6510   -7.5770 C.ar   41  PHE41      -0.0203
     24  CD1      133.9630   63.3350   -7.9070 C.ar   41  PHE41      -0.0042
     25  CD2      135.4970   64.4850   -6.4920 C.ar   41  PHE41      -0.0042
     26  CE1      132.9110   63.8570   -7.1790 C.ar   41  PHE41      -0.0003
     27  CE2      134.4490   65.0120   -5.7550 C.ar   41  PHE41      -0.0003
     28  CZ       133.1580   64.6960   -6.1060 C.ar   41  PHE41      -0.0000
     29  N        140.2910   58.4540  -10.5940 N.3    43  ASN43      -0.1240
     30  CA       140.2040   57.1650  -11.2680 C.3    43  ASN43       0.1653
     31  C        141.6170   56.6150  -11.4370 C.2    43  ASN43       0.2266
     32  O        142.1800   56.6070  -12.5420 O.2    43  ASN43      -0.2867
     33  CB       139.4630   57.3220  -12.6420 C.3    43  ASN43       0.1155
     34  CG       139.3390   56.0020  -13.4050 C.2    43  ASN43       0.2627
     35  OD1      139.6880   54.9380  -12.8950 O.2    43  ASN43      -0.2716
     36  ND2      138.8430   56.0730  -14.6300 N.am   43  ASN43      -0.0877
     37  N        131.7140   51.7520  -16.8440 N.3    86  LEU86      -0.1245
     38  CA       131.5260   52.3330  -15.5200 C.3    86  LEU86       0.1561
     39  C        132.1520   51.4530  -14.4440 C.2    86  LEU86       0.2260
     40  O        132.8370   51.9580  -13.5490 O.2    86  LEU86      -0.2867
     41  CB       130.0350   52.5530  -15.2520 C.3    86  LEU86       0.0270
     42  CG       129.2950   53.5160  -16.2000 C.3    86  LEU86       0.0019
     43  CD1      127.7820   53.4830  -15.9270 C.3    86  LEU86       0.0001
     44  CD2      129.8210   54.9400  -16.0690 C.3    86  LEU86       0.0001
     45  N        136.0130   51.6890  -14.2970 N.3    89  SER89      -0.1217
     46  CA       136.6050   52.9230  -13.8250 C.3    89  SER89       0.1889
     47  C        136.2320   53.1930  -12.3720 C.2    89  SER89       0.2288
     48  O        136.4340   54.3030  -11.8770 O.2    89  SER89      -0.2866
     49  CB       136.2050   54.0700  -14.7500 C.3    89  SER89       0.2089
     50  OG       134.8100   54.1060  -14.9070 O.3    89  SER89      -0.2183
     51  N        133.2610   53.1360  -10.8200 N.3    91  LEU91      -0.1231
     52  CA       132.0730   53.8910  -10.4620 C.3    91  LEU91       0.1693
     53  C        130.9890   53.0160   -9.8570 C.2    91  LEU91       0.2592
     54  O        129.9780   53.5540   -9.3830 O.2    91  LEU91      -0.2718
     55  CB       131.5490   54.6630  -11.6790 C.3    91  LEU91       0.0284
     56  CG       132.5140   55.7910  -12.0930 C.3    91  LEU91       0.0019
     57  CD1      132.2260   56.2920  -13.5060 C.3    91  LEU91       0.0001
     58  CD2      132.5140   56.9560  -11.0750 C.3    91  LEU91       0.0001
     59  N        131.1770   51.6930   -9.8340 N.am   92  TYR92      -0.1976
     60  CA       130.2470   50.8210   -9.1240 C.3    92  TYR92       0.1639
     61  C        130.8330   50.3190   -7.8120 C.2    92  TYR92       0.2290
     62  O        130.2640   49.4190   -7.1920 O.2    92  TYR92      -0.2864
     63  CB       129.7970   49.6560  -10.0160 C.3    92  TYR92       0.0560
     64  CG       128.5590   49.9990  -10.8580 C.ar   92  TYR92      -0.0198
     65  CD1      128.6850   50.3600  -12.1930 C.ar   92  TYR92      -0.0009
     66  CD2      127.2780   49.9580  -10.3170 C.ar   92  TYR92      -0.0009
     67  CE1      127.5800   50.6670  -12.9680 C.ar   92  TYR92       0.0417
     68  CE2      126.1550   50.2870  -11.0770 C.ar   92  TYR92       0.0417
     69  CZ       126.3200   50.6370  -12.4120 C.ar   92  TYR92       0.1957
     70  OH       125.2320   50.9520  -13.2060 O.3    92  TYR92      -0.2866
     71  N        132.7310   52.8380   -5.3960 N.3    94  TYR94      -0.1241
     72  CA       133.1290   53.8540   -4.4250 C.3    94  TYR94       0.1605
     73  C        132.0420   54.1000   -3.3720 C.2    94  TYR94       0.2264
     74  O        132.3510   54.3360   -2.1900 O.2    94  TYR94      -0.2867
     75  CB       133.5140   55.1500   -5.1530 C.3    94  TYR94       0.0534
     76  CG       132.3900   55.9380   -5.8070 C.ar   94  TYR94      -0.0201
     77  CD1      131.9270   55.6070   -7.0770 C.ar   94  TYR94      -0.0009
     78  CD2      131.8350   57.0360   -5.1790 C.ar   94  TYR94      -0.0009
     79  CE1      130.9300   56.3290   -7.6840 C.ar   94  TYR94       0.0417
     80  CE2      130.8250   57.7700   -5.7800 C.ar   94  TYR94       0.0417
     81  CZ       130.3870   57.4150   -7.0260 C.ar   94  TYR94       0.1957
     82  OH       129.3840   58.1330   -7.6150 O.3    94  TYR94      -0.2866
     83  N        122.8710   52.8210   -7.3340 N.3   131  SER131     -0.1217
     84  CA       123.6870   53.5240   -8.3220 C.3   131  SER131      0.1889
     85  C        123.0420   53.4690   -9.6960 C.2   131  SER131      0.2288
     86  O        123.0190   54.4730  -10.4190 O.2   131  SER131     -0.2866
     87  CB       125.1020   52.9360   -8.3890 C.3   131  SER131      0.2089
     88  OG       125.8250   53.1250   -7.1740 O.3   131  SER131     -0.2183
     89  N        121.5470   56.6560  -11.5820 N.3   135  ASN135     -0.1240
     90  CA       122.2060   57.0560  -12.8200 C.3   135  ASN135      0.1653
     91  C        121.1770   57.1870  -13.9140 C.2   135  ASN135      0.2266
     92  O        121.1680   58.1730  -14.6660 O.2   135  ASN135     -0.2867
     93  CB       123.2990   56.0830  -13.2410 C.3   135  ASN135      0.1155
     94  CG       124.2600   56.7290  -14.2150 C.2   135  ASN135      0.2627
     95  OD1      124.5320   57.9270  -14.0840 O.2   135  ASN135     -0.2716
     96  ND2      124.7520   55.9680  -15.2150 N.am  135  ASN135     -0.0877
     97  N        126.0950   63.6670  -12.5550 N.3   144  PRO144     -0.2102
     98  CA       126.5740   62.4560  -11.8740 C.3   144  PRO144      0.1504
     99  C        125.7330   62.1310  -10.6380 C.2   144  PRO144      0.2575
    100  O        124.9330   62.9390  -10.1600 O.2   144  PRO144     -0.2718
    101  CB       128.0240   62.8050  -11.4910 C.3   144  PRO144      0.0282
    102  CG       128.1400   64.3030  -11.5890 C.3   144  PRO144      0.0208
    103  CD       126.8470   64.8730  -12.1490 C.3   144  PRO144      0.0893
    104  N        125.8950   60.9030  -10.1420 N.am  145  VAL145     -0.1980
    105  CA       125.1630   60.4940   -8.9460 C.3   145  VAL145      0.1595
    106  C        125.8980   60.8690   -7.6650 C.2   145  VAL145      0.2287
    107  O        125.2790   60.8700   -6.5940 O.2   145  VAL145     -0.2864
    108  CB       124.8740   58.9800   -8.9490 C.3   145  VAL145      0.0276
    109  CG1      124.2850   58.5920  -10.2590 C.3   145  VAL145      0.0022
    110  CG2      126.1390   58.1950   -8.7080 C.3   145  VAL145      0.0022
    111  N        136.7400   69.8710  -12.2630 N.3   270  MET270     -0.1230
    112  CA       136.3200   68.4870  -12.5120 C.3   270  MET270      0.1702
    113  C        135.0550   68.4370  -13.3720 C.2   270  MET270      0.2592
    114  O        135.0920   67.9870  -14.5200 O.2   270  MET270     -0.2718
    115  CB       136.1170   67.7760  -11.1780 C.3   270  MET270      0.0401
    116  CG       136.0210   66.3030  -11.3030 C.3   270  MET270      0.0596
    117  SD       137.4430   65.5900  -12.1750 S.3   270  MET270     -0.1393
    118  CE       136.6790   64.0250  -12.4460 C.3   270  MET270      0.0692
    119  N        133.9300   68.9130  -12.8220 N.am  271  PHE271     -0.1976
    120  CA       132.6750   68.9330  -13.5650 C.3   271  PHE271      0.1639
    121  C        132.3620   70.3100  -14.1420 C.2   271  PHE271      0.2290
    122  O        131.3990   70.4530  -14.9090 O.2   271  PHE271     -0.2864
    123  CB       131.5440   68.4040  -12.6690 C.3   271  PHE271      0.0560
    124  CG       131.7830   66.9850  -12.2200 C.ar  271  PHE271     -0.0200
    125  CD1      131.5390   65.9190  -13.0860 C.ar  271  PHE271     -0.0042
    126  CD2      132.3540   66.7190  -10.9810 C.ar  271  PHE271     -0.0042
    127  CE1      131.8080   64.5970  -12.7000 C.ar  271  PHE271     -0.0003
    128  CE2      132.6220   65.4180  -10.5920 C.ar  271  PHE271     -0.0003
    129  CZ       132.3510   64.3530  -11.4580 C.ar  271  PHE271     -0.0000
    130  N        129.6550   65.0180  -19.4750 N.3   334  LEU334     -0.1231
    131  CA       130.1200   63.9120  -18.6370 C.3   334  LEU334      0.1693
    132  C        130.9940   62.9420  -19.4360 C.2   334  LEU334      0.2592
    133  O        132.0160   62.4560  -18.9340 O.2   334  LEU334     -0.2718
    134  CB       128.9400   63.1830  -18.0050 C.3   334  LEU334      0.0284
    135  CG       128.2930   63.9100  -16.8200 C.3   334  LEU334      0.0019
    136  CD1      127.3270   62.9900  -16.0870 C.3   334  LEU334      0.0001
    137  CD2      129.3450   64.4410  -15.8520 C.3   334  LEU334      0.0001
    138  N        130.6330   62.6830  -20.6940 N.am  335  SER335     -0.1952
    139  CA       131.4510   61.8150  -21.5320 C.3   335  SER335      0.1924
    140  C        132.8510   62.3560  -21.7720 C.2   335  SER335      0.2314
    141  O        133.6760   61.6430  -22.3540 O.2   335  SER335     -0.2863
    142  CB       130.7900   61.6110  -22.8840 C.3   335  SER335      0.2116
    143  OG       130.7060   62.8570  -23.5470 O.3   335  SER335     -0.2180
    144  N        134.5930   64.1610  -19.1220 N.3   337  VAL337     -0.1231
    145  CA       135.2030   64.4420  -17.8250 C.3   337  VAL337      0.1692
    146  C        136.2960   63.4180  -17.5290 C.2   337  VAL337      0.2592
    147  O        136.0240   62.2150  -17.4450 O.2   337  VAL337     -0.2718
    148  CB       134.1400   64.4260  -16.7240 C.3   337  VAL337      0.0266
    149  CG1      134.7900   64.4050  -15.3600 C.3   337  VAL337      0.0020
    150  CG2      133.2200   65.6230  -16.8890 C.3   337  VAL337      0.0020
    151  N        137.5380   63.8920  -17.3600 N.am  338  THR338     -0.1953
    152  CA       138.5920   63.0250  -16.8310 C.3   338  THR338      0.1897
    153  C        139.2100   63.6260  -15.5650 C.2   338  THR338      0.2313
    154  O        138.9160   63.1670  -14.4590 O.2   338  THR338     -0.2863
    155  CB       139.6690   62.7380  -17.8910 C.3   338  THR338      0.1794
    156  OG1      140.1180   63.9550  -18.5000 O.3   338  THR338     -0.2208
    157  CG2      139.1320   61.8090  -18.9720 C.3   338  THR338      0.0378
@<TRIPOS>BOND
     1   143   142    1
     2   142   139    1
     3   141   140    2
     4   140   139    1
     5   139   138    1
     6   138   132   am
     7   130   131    1
     8   132   133    2
     9   132   131    1
    10   144   145    1
    11   157   155    1
    12   131   134    1
    13   156   155    1
    14   134   135    1
    15   155   152    1
    16   145   146    1
    17   145   148    1
    18   146   147    2
    19   146   151   am
    20     8     6   ar
    21   151   152    1
    22     7     6   ar
    23   150   148    1
    24    37    38    1
    25   152   153    1
    26   135   136    1
    27   135   137    1
    28     6     5    1
    29   148   149    1
    30    42    44    1
    31    42    43    1
    32    42    41    1
    33   153   154    2
    34    38    41    1
    35    38    39    1
    36     5     2    1
    37     4     3    2
    38    96    94   am
    39     3     2    1
    40   122   121    2
    41    50    49    1
    42     1     2    1
    43    49    46    1
    44    92    91    2
    45    36    34   am
    46   114   113    2
    47    39    40    2
    48    45    46    1
    49    94    95    2
    50    94    93    1
    51   121   120    1
    52    91    90    1
    53    46    47    1
    54   120   119    1
    55   120   123    1
    56    57    56    1
    57    34    35    2
    58    34    33    1
    59   113   119   am
    60   113   112    1
    61    93    90    1
    62    70    69    1
    63   125   127   ar
    64   125   124   ar
    65    67    69   ar
    66    67    65   ar
    67    90    89    1
    68   127   129   ar
    69   123   124    1
    70    33    30    1
    71    97   103    1
    72    97    98    1
    73    32    31    2
    74   112   111    1
    75   112   115    1
    76   118   117    1
    77    69    68   ar
    78    47    48    2
    79   124   126   ar
    80    65    64   ar
    81   117   116    1
    82   103   102    1
    83    56    55    1
    84    56    58    1
    85    98   101    1
    86    98    99    1
    87    55    52    1
    88   102   101    1
    89   129   128   ar
    90    31    30    1
    91    17    15   am
    92   116   115    1
    93    30    29    1
    94    68    66   ar
    95   126   128   ar
    96    64    66   ar
    97    64    63    1
    98    51    52    1
    99    99   100    2
   100    99   104   am
   101    52    53    1
   102    86    85    2
   103   109   108    1
   104    15    16    2
   105    15    14    1
   106   104   105    1
   107    63    60    1
   108    21    20    2
   109    53    59   am
   110    53    54    2
   111    59    60    1
   112    85    84    1
   113    14    13    1
   114    60    61    1
   115   108   105    1
   116   108   110    1
   117   105   106    1
   118    20    19    1
   119    87    84    1
   120    87    88    1
   121    22    19    1
   122    22    23    1
   123    84    83    1
   124    19    18    1
   125    24    23   ar
   126    24    26   ar
   127    61    62    2
   128    13    10    1
   129    79    77   ar
   130    79    81   ar
   131   106   107    2
   132    82    81    1
   133    23    25   ar
   134    26    28   ar
   135    77    76   ar
   136    81    80   ar
   137    10     9    1
   138    10    11    1
   139    25    27   ar
   140    12    11    2
   141    28    27   ar
   142    76    78   ar
   143    76    75    1
   144    80    78   ar
   145    71    72    1
   146    75    72    1
   147    72    73    1
   148    73    74    2
