@<TRIPOS>MOLECULE
tmp/6qd5A08.pdb
 135 131 0 0 0
SMALL
GASTEIGER

@<TRIPOS>ATOM
      1  N        130.2160   54.2170   12.4270 N.3   106  PHE106     -0.1241
      2  CA       129.0250   54.4900   13.2420 C.3   106  PHE106      0.1605
      3  C        128.5280   53.2730   14.0310 C.2   106  PHE106      0.2264
      4  O        127.4800   53.3480   14.6850 O.2   106  PHE106     -0.2867
      5  CB       127.9120   55.0620   12.3660 C.3   106  PHE106      0.0534
      6  CG       128.2670   56.3960   11.7720 C.ar  106  PHE106     -0.0203
      7  CD1      128.5810   57.4710   12.5950 C.ar  106  PHE106     -0.0042
      8  CD2      128.3470   56.5680   10.4030 C.ar  106  PHE106     -0.0042
      9  CE1      128.9310   58.7210   12.0430 C.ar  106  PHE106     -0.0003
     10  CE2      128.7030   57.8120    9.8470 C.ar  106  PHE106     -0.0003
     11  CZ       129.0010   58.8840   10.6670 C.ar  106  PHE106     -0.0000
     12  N        122.9810   62.7840   19.2460 N.3   174  ILE174     -0.1231
     13  CA       122.2130   63.6020   20.1690 C.3   174  ILE174      0.1678
     14  C        122.1840   65.0280   19.6160 C.2   174  ILE174      0.2434
     15  O        123.2370   65.5990   19.3190 O.2   174  ILE174     -0.2733
     16  CB       122.7990   63.5350   21.5950 C.3   174  ILE174      0.0265
     17  CG1      121.9240   64.2640   22.6070 C.3   174  ILE174      0.0019
     18  CG2      124.2730   63.9650   21.6510 C.3   174  ILE174      0.0020
     19  CD1      120.9320   63.3550   23.2670 C.3   174  ILE174      0.0001
     20  N        121.0120   65.6160   19.3920 N.am  175  PRO175     -0.2718
     21  CA       120.9610   67.0220   18.9700 C.3   175  PRO175      0.1535
     22  C        121.4520   67.9620   20.0640 C.2   175  PRO175      0.2598
     23  O        121.3670   67.6630   21.2570 O.2   175  PRO175     -0.2715
     24  CB       119.4700   67.2530   18.6800 C.3   175  PRO175      0.0310
     25  CG       118.7480   66.2080   19.4460 C.3   175  PRO175      0.0237
     26  CD       119.6680   65.0150   19.4990 C.3   175  PRO175      0.0939
     27  N        121.9760   69.1130   19.6400 N.am  176  ILE176     -0.1978
     28  CA       122.3640   70.1610   20.5820 C.3   176  ILE176      0.1596
     29  C        121.1330   70.6890   21.3260 C.2   176  ILE176      0.2287
     30  O        120.0450   70.8250   20.7530 O.2   176  ILE176     -0.2864
     31  CB       123.0920   71.2890   19.8260 C.3   176  ILE176      0.0276
     32  CG1      124.2090   70.7050   18.9540 C.3   176  ILE176      0.0022
     33  CG2      123.6510   72.3070   20.7720 C.3   176  ILE176      0.0022
     34  CD1      125.2200   69.9000   19.7140 C.3   176  ILE176      0.0001
     35  N        134.9810   70.3010   17.0100 N.3   250  ASN250     -0.1240
     36  CA       134.3780   69.7590   15.7970 C.3   250  ASN250      0.1653
     37  C        135.1750   70.1680   14.5720 C.2   250  ASN250      0.2266
     38  O        135.3000   69.3940   13.6210 O.2   250  ASN250     -0.2867
     39  CB       132.9240   70.2130   15.6560 C.3   250  ASN250      0.1155
     40  CG       132.0580   69.8070   16.8380 C.2   250  ASN250      0.2627
     41  OD1      132.3880   68.8940   17.5820 O.2   250  ASN250     -0.2716
     42  ND2      130.9390   70.4990   17.0120 N.am  250  ASN250     -0.0877
     43  N        135.1460   67.8220   10.9100 N.3   255  LEU255     -0.1231
     44  CA       133.7250   67.7070   10.6060 C.3   255  LEU255      0.1693
     45  C        133.2130   68.8680    9.7640 C.2   255  LEU255      0.2592
     46  O        132.1930   68.7290    9.0740 O.2   255  LEU255     -0.2718
     47  CB       132.9300   67.6050   11.9120 C.3   255  LEU255      0.0284
     48  CG       133.2220   66.3090   12.6780 C.3   255  LEU255      0.0019
     49  CD1      132.3810   66.2270   13.9570 C.3   255  LEU255      0.0001
     50  CD2      133.0410   65.0310   11.7850 C.3   255  LEU255      0.0001
     51  N        133.8950   70.0010    9.7910 N.am  256  TRP256     -0.1976
     52  CA       133.5070   71.1150    8.9510 C.3   256  TRP256      0.1640
     53  C        134.1820   71.0860    7.5760 C.2   256  TRP256      0.2290
     54  O        133.8560   71.9120    6.7210 O.2   256  TRP256     -0.2864
     55  CB       133.8120   72.4180    9.6840 C.3   256  TRP256      0.0576
     56  CG       132.8010   72.7250   10.7300 C.ar  256  TRP256      0.0006
     57  CD1      132.7390   72.2130   12.0030 C.ar  256  TRP256      0.0946
     58  CD2      131.6830   73.6140   10.6010 C.ar  256  TRP256      0.0152
     59  NE1      131.6480   72.7370   12.6720 N.ar  256  TRP256     -0.2442
     60  CE2      130.9920   73.6050   11.8340 C.ar  256  TRP256      0.0810
     61  CE3      131.2000   74.4190    9.5610 C.ar  256  TRP256      0.0012
     62  CZ2      129.8470   74.3670   12.0510 C.ar  256  TRP256      0.0191
     63  CZ3      130.0690   75.1850    9.7850 C.ar  256  TRP256      0.0001
     64  CH2      129.4080   75.1550   11.0200 C.ar  256  TRP256      0.0015
     65  N        134.9960   68.0600    5.2890 N.3   258  PHE258     -0.1227
     66  CA       135.0090   67.0110    4.2750 C.3   258  PHE258      0.1736
     67  C        134.0030   67.2810    3.1510 C.2   258  PHE258      0.2595
     68  O        134.3060   67.0270    1.9700 O.2   258  PHE258     -0.2718
     69  CB       134.8090   65.6240    4.9170 C.3   258  PHE258      0.0547
     70  CG       133.4850   65.4120    5.6450 C.ar  258  PHE258     -0.0202
     71  CD1      133.3260   65.8030    6.9780 C.ar  258  PHE258     -0.0042
     72  CD2      132.4390   64.7210    5.0240 C.ar  258  PHE258     -0.0042
     73  CE1      132.0940   65.5800    7.6640 C.ar  258  PHE258     -0.0003
     74  CE2      131.2190   64.4790    5.6920 C.ar  258  PHE258     -0.0003
     75  CZ       131.0430   64.9130    7.0190 C.ar  258  PHE258     -0.0000
     76  N        132.8350   67.8420    3.4890 N.am  259  ASN259     -0.1974
     77  CA       131.8360   68.1720    2.4680 C.3   259  ASN259      0.1688
     78  C        132.3130   69.3040    1.5670 C.2   259  ASN259      0.2292
     79  O        132.2400   69.2000    0.3350 O.2   259  ASN259     -0.2864
     80  CB       130.5100   68.5500    3.1230 C.3   259  ASN259      0.1181
     81  CG       129.7260   67.3430    3.5470 C.2   259  ASN259      0.2629
     82  OD1      129.2250   66.5860    2.7190 O.2   259  ASN259     -0.2716
     83  ND2      129.6360   67.1370    4.8400 N.am  259  ASN259     -0.0877
     84  N        129.6610   73.9910    3.1890 N.3   290  ALA290     -0.1245
     85  CA       129.9230   73.9030    4.6270 C.3   290  ALA290      0.1562
     86  C        128.7200   74.3950    5.4420 C.2   290  ALA290      0.2260
     87  O        128.3260   73.7760    6.4470 O.2   290  ALA290     -0.2867
     88  CB       131.1880   74.6910    4.9680 C.3   290  ALA290      0.0290
     89  N        126.1840   71.8540    5.2790 N.3   293  GLY293     -0.1210
     90  CA       126.6220   70.7220    6.0650 C.3   293  GLY293      0.1956
     91  C        126.1830   70.8360    7.5040 C.2   293  GLY293      0.2611
     92  O        125.6210   69.8960    8.0750 O.2   293  GLY293     -0.2717
     93  N        126.3920   72.0050    8.1020 N.am  294  VAL294     -0.1979
     94  CA       125.9770   72.1140    9.4990 C.3   294  VAL294      0.1595
     95  C        124.4510   72.1150    9.6040 C.2   294  VAL294      0.2287
     96  O        123.8780   71.5660   10.5620 O.2   294  VAL294     -0.2864
     97  CB       126.6100   73.3420   10.1830 C.3   294  VAL294      0.0276
     98  CG1      126.1380   74.6410    9.5360 C.3   294  VAL294      0.0022
     99  CG2      126.3100   73.3550   11.6710 C.3   294  VAL294      0.0022
    100  N        123.4350   68.5040    9.3920 N.3   297  ALA297     -0.1231
    101  CA       123.8100   67.7920   10.6150 C.3   297  ALA297      0.1694
    102  C        122.8230   68.0740   11.7560 C.2   297  ALA297      0.2592
    103  O        122.3950   67.1480   12.4640 O.2   297  ALA297     -0.2718
    104  CB       125.2470   68.1450   11.0120 C.3   297  ALA297      0.0304
    105  N        122.4190   69.3380   11.9310 N.am  298  ASN298     -0.1974
    106  CA       121.4320   69.6540   12.9680 C.3   298  ASN298      0.1688
    107  C        120.0900   68.9790   12.6840 C.2   298  ASN298      0.2292
    108  O        119.5000   68.3070   13.5590 O.2   298  ASN298     -0.2864
    109  CB       121.2630   71.1740   13.0870 C.3   298  ASN298      0.1181
    110  CG       122.4720   71.8310   13.7370 C.2   298  ASN298      0.2629
    111  OD1      123.2090   71.1670   14.4560 O.2   298  ASN298     -0.2716
    112  ND2      122.6950   73.1250   13.4710 N.am  298  ASN298     -0.0877
    113  N        120.2790   65.2490   13.0980 N.3   301  ALA301     -0.1245
    114  CA       120.4110   64.8270   14.4900 C.3   301  ALA301      0.1562
    115  C        119.0560   64.7900   15.1510 C.2   301  ALA301      0.2260
    116  O        118.8300   63.9670   16.0430 O.2   301  ALA301     -0.2867
    117  CB       121.3540   65.7450   15.2790 C.3   301  ALA301      0.0290
    118  N        123.5190   60.8010   11.2440 N.3   306  PRO306     -0.2102
    119  CA       124.5420   61.7290   10.7460 C.3   306  PRO306      0.1504
    120  C        124.1320   62.2660    9.3780 C.2   306  PRO306      0.2576
    121  O        123.2950   61.6830    8.6870 O.2   306  PRO306     -0.2718
    122  CB       125.7920   60.8460   10.6410 C.3   306  PRO306      0.0282
    123  CG       125.2230   59.4840   10.2900 C.3   306  PRO306      0.0208
    124  CD       123.8090   59.4080   10.8510 C.3   306  PRO306      0.0893
    125  N        124.7310   63.4010    8.9820 N.am  307  ALA307     -0.1966
    126  CA       124.4620   63.8940    7.6340 C.3   307  ALA307      0.1728
    127  C        125.3830   63.2960    6.5830 C.2   307  ALA307      0.2616
    128  O        125.0310   63.3220    5.3980 O.2   307  ALA307     -0.2715
    129  CB       124.5660   65.4260    7.5750 C.3   307  ALA307      0.0334
    130  N        126.5420   62.7610    6.9950 N.am  308  CYS308     -0.1968
    131  CA       127.6220   62.3570    6.0970 C.3   308  CYS308      0.1712
    132  C        127.7920   63.3210    4.9310 C.2   308  CYS308      0.2296
    133  O        128.0930   64.4980    5.1590 O.2   308  CYS308     -0.2864
    134  CB       127.4010   60.9230    5.6330 C.3   308  CYS308      0.0983
    135  SG       127.4910   59.8370    7.1000 S.3   308  CYS308     -0.0798
@<TRIPOS>BOND
     1    79    78    2
     2    78    77    1
     3    68    67    2
     4    77    80    1
     5    77    76    1
     6    82    81    2
     7    80    81    1
     8    67    76   am
     9    67    66    1
    10    84    85    1
    11    81    83   am
    12    66    69    1
    13    66    65    1
    14    85    88    1
    15    85    86    1
    16    69    70    1
    17   132   133    2
    18   132   131    1
    19    72    70   ar
    20    72    74   ar
    21    89    90    1
    22   128   127    2
    23    86    87    2
    24   134   131    1
    25   134   135    1
    26    70    71   ar
    27    74    75   ar
    28    90    91    1
    29   131   130    1
    30   127   130   am
    31   127   126    1
    32    54    53    2
    33    71    73   ar
    34    75    73   ar
    35    91    92    2
    36    91    93   am
    37   129   126    1
    38    53    52    1
    39   126   125    1
    40    93    94    1
    41   121   120    2
    42    52    55    1
    43    52    51    1
    44   125   120   am
    45    46    45    2
    46   120   119    1
    47   100   101    1
    48    94    95    1
    49    94    97    1
    50    98    97    1
    51    61    63   ar
    52    61    58   ar
    53    95    96    2
    54    55    56    1
    55    45    51   am
    56    45    44    1
    57    63    64   ar
    58    10     8   ar
    59    10    11   ar
    60    97    99    1
    61   123   122    1
    62   123   124    1
    63     8     6   ar
    64    58    56   ar
    65    58    60   ar
    66    44    43    1
    67    44    47    1
    68   101   104    1
    69   101   102    1
    70   122   119    1
    71    11     9   ar
    72    56    57   ar
    73   119   118    1
    74   124   118    1
    75    64    62   ar
    76   102   105   am
    77   102   103    2
    78     6     5    1
    79     6     7   ar
    80    50    48    1
    81    60    62   ar
    82    60    59   ar
    83    47    48    1
    84   105   106    1
    85    57    59   ar
    86     9     7   ar
    87     5     2    1
    88     1     2    1
    89    48    49    1
    90   107   106    1
    91   107   108    2
    92   106   109    1
    93   109   110    1
    94   113   114    1
    95     2     3    1
    96   112   110   am
    97    38    37    2
    98   110   111    2
    99     3     4    2
   100   114   115    1
   101   114   117    1
   102    37    36    1
   103   115   116    2
   104    39    36    1
   105    39    40    1
   106    36    35    1
   107    40    42   am
   108    40    41    2
   109    24    21    1
   110    24    25    1
   111    32    34    1
   112    32    31    1
   113    21    20    1
   114    21    22    1
   115    12    13    1
   116    15    14    2
   117    20    26    1
   118    20    14   am
   119    25    26    1
   120    14    13    1
   121    27    22   am
   122    27    28    1
   123    31    28    1
   124    31    33    1
   125    22    23    2
   126    13    16    1
   127    28    29    1
   128    30    29    2
   129    16    18    1
   130    16    17    1
   131    17    19    1
