@<TRIPOS>MOLECULE
tmp/6qemH00.pdb
 134 132 0 0 0
SMALL
GASTEIGER

@<TRIPOS>ATOM
      1  N        178.9650  172.4000  109.7060 N.3    65  LEU65      -0.1231
      2  CA       179.4960  172.8350  108.4240 C.3    65  LEU65       0.1693
      3  C        179.0830  174.2560  108.0820 C.2    65  LEU65       0.2592
      4  O        179.7530  174.8990  107.2690 O.2    65  LEU65      -0.2718
      5  CB       179.0590  171.8780  107.3250 C.3    65  LEU65       0.0284
      6  CG       179.6640  172.1230  105.9450 C.3    65  LEU65       0.0019
      7  CD1      181.1370  171.8850  105.9570 C.3    65  LEU65       0.0001
      8  CD2      179.0530  171.2130  104.9560 C.3    65  LEU65       0.0001
      9  N        178.0200  174.7610  108.7000 N.am   66  HIS66      -0.1976
     10  CA       177.5090  176.1020  108.4560 C.3    66  HIS66       0.1656
     11  C        177.4660  176.9150  109.7420 C.2    66  HIS66       0.2291
     12  O        176.6750  177.8480  109.8720 O.2    66  HIS66      -0.2864
     13  CB       176.1230  176.0400  107.8270 C.3    66  HIS66       0.0771
     14  CG       176.1000  175.4230  106.4670 C.ar   66  HIS66       0.0820
     15  ND1      175.9170  174.0740  106.2630 N.ar   66  HIS66      -0.2267
     16  CD2      176.2270  175.9760  105.2390 C.ar   66  HIS66       0.1154
     17  CE1      175.9350  173.8220  104.9670 C.ar   66  HIS66       0.1986
     18  NE2      176.1220  174.9590  104.3240 N.ar   66  HIS66      -0.2212
     19  N        179.6400  180.7690  109.7290 N.3    69  CYS69      -0.1235
     20  CA       178.9890  181.0590  108.4600 C.3    69  CYS69       0.1677
     21  C        178.2570  182.3960  108.4910 C.2    69  CYS69       0.2270
     22  O        177.0740  182.4870  108.1630 O.2    69  CYS69      -0.2867
     23  CB       178.0380  179.9270  108.1290 C.3    69  CYS69       0.0956
     24  SG       177.4780  179.9400  106.4720 S.3    69  CYS69      -0.0801
     25  N        181.8150  186.9870  105.7840 N.3    73  ASN73      -0.1225
     26  CA       182.5750  186.0870  104.9290 C.3    73  ASN73       0.1785
     27  C        181.8840  185.7890  103.6030 C.2    73  ASN73       0.2597
     28  O        182.4710  185.1030  102.7600 O.2    73  ASN73      -0.2718
     29  CB       182.8640  184.7850  105.6730 C.3    73  ASN73       0.1169
     30  CG       181.6150  184.0720  106.1230 C.2    73  ASN73       0.2627
     31  OD1      180.5060  184.4190  105.7320 O.2    73  ASN73      -0.2716
     32  ND2      181.7910  183.0700  106.9610 N.am   73  ASN73      -0.0877
     33  N        180.6620  186.2730  103.4010 N.am   74  TYR74      -0.1962
     34  CA       179.9630  186.0840  102.1370 C.3    74  TYR74       0.1771
     35  C        180.7070  186.8400  101.0510 C.2    74  TYR74       0.2619
     36  O        180.7280  188.0750  101.0410 O.2    74  TYR74      -0.2715
     37  CB       178.5270  186.5690  102.2680 C.3    74  TYR74       0.0574
     38  CG       177.6660  186.3990  101.0490 C.ar   74  TYR74      -0.0198
     39  CD1      177.1290  185.1700  100.7200 C.ar   74  TYR74      -0.0009
     40  CD2      177.3510  187.4830  100.2540 C.ar   74  TYR74      -0.0009
     41  CE1      176.3250  185.0170   99.6200 C.ar   74  TYR74       0.0417
     42  CE2      176.5470  187.3420   99.1500 C.ar   74  TYR74       0.0417
     43  CZ       176.0370  186.1030   98.8390 C.ar   74  TYR74       0.1957
     44  OH       175.2310  185.9490   97.7420 O.3    74  TYR74      -0.2866
     45  N        181.3220  186.1010  100.1410 N.am   75  ARG75      -0.1977
     46  CA       182.2310  186.6910   99.1740 C.3    75  ARG75       0.1597
     47  C        181.4440  187.3290   98.0400 C.2    75  ARG75       0.2287
     48  O        180.6470  186.6670   97.3660 O.2    75  ARG75      -0.2864
     49  CB       183.1860  185.6310   98.6460 C.3    75  ARG75       0.0334
     50  CG       184.2780  186.1780   97.7610 C.3    75  ARG75       0.0492
     51  CD       185.2160  185.0830   97.3390 C.3    75  ARG75       0.2205
     52  NE       184.5080  184.0660   96.5670 N.pl3  75  ARG75      -0.0865
     53  CZ       184.2320  184.1530   95.2670 C.cat  75  ARG75       0.5346
     54  NH1      184.5890  185.2110   94.5470 N.pl3  75  ARG75       0.1354
     55  NH2      183.5800  183.1630   94.6770 N.pl3  75  ARG75       0.1354
     56  N        180.6000  188.7520   94.4780 N.3    77  GLU77      -0.1245
     57  CA       180.9350  188.5360   93.0750 C.3    77  GLU77       0.1567
     58  C        180.1750  189.4510   92.1300 C.2    77  GLU77       0.2260
     59  O        180.7520  189.9110   91.1420 O.2    77  GLU77      -0.2867
     60  CB       180.6600  187.0910   92.6790 C.3    77  GLU77       0.0388
     61  CG       181.4520  186.0660   93.4540 C.3    77  GLU77       0.1160
     62  CD       181.0640  184.6460   93.0860 C.2    77  GLU77       0.3649
     63  OE1      180.1180  184.4750   92.2870 O.co2  77  GLU77      -0.2457
     64  OE2      181.7010  183.7010   93.5940 O.co2  77  GLU77      -0.2457
     65  N        174.2040  189.3990   94.3390 N.3    81  GLN81      -0.1245
     66  CA       174.6900  189.0470   95.6640 C.3    81  GLN81       0.1566
     67  C        174.4410  190.1740   96.6510 C.2    81  GLN81       0.2260
     68  O        174.1080  189.9260   97.8120 O.2    81  GLN81      -0.2867
     69  CB       176.1700  188.6960   95.6020 C.3    81  GLN81       0.0367
     70  CG       176.3930  187.3500   94.9760 C.3    81  GLN81       0.0905
     71  CD       177.8270  186.9180   94.9600 C.2    81  GLN81       0.2608
     72  OE1      178.7200  187.6360   95.4050 O.2    81  GLN81      -0.2717
     73  NE2      178.0580  185.7190   94.4520 N.am   81  GLN81      -0.0878
     74  N        172.5460  174.5100   93.2660 N.3   108  PRO108     -0.2102
     75  CA       173.4440  174.3610   94.4110 C.3   108  PRO108      0.1504
     76  C        174.7060  175.1920   94.2690 C.2   108  PRO108      0.2576
     77  O        174.9800  175.8150   93.2420 O.2   108  PRO108     -0.2718
     78  CB       173.7690  172.8710   94.4060 C.3   108  PRO108      0.0282
     79  CG       172.6460  172.2630   93.7310 C.3   108  PRO108      0.0208
     80  CD       172.2700  173.2020   92.6560 C.3   108  PRO108      0.0893
     81  N        175.4850  175.1860   95.3470 N.am  109  GLY109     -0.1943
     82  CA       176.7370  175.9080   95.3960 C.3   109  GLY109      0.2014
     83  C        176.6060  177.4070   95.3120 C.2   109  GLY109      0.2640
     84  O        177.6140  178.0920   95.1220 O.2   109  GLY109     -0.2714
     85  N        175.3960  177.9390   95.4530 N.am  110  THR110     -0.1936
     86  CA       175.1560  179.3640   95.3130 C.3   110  THR110      0.2028
     87  C        175.2390  180.1190   96.6260 C.2   110  THR110      0.2643
     88  O        175.4420  181.3380   96.6070 O.2   110  THR110     -0.2714
     89  CB       173.7770  179.6000   94.7120 C.3   110  THR110      0.1808
     90  OG1      172.7890  179.0230   95.5650 O.3   110  THR110     -0.2208
     91  CG2      173.6720  178.9670   93.3670 C.3   110  THR110      0.0379
     92  N        175.0810  179.4330   97.7540 N.am  111  GLY111     -0.1939
     93  CA       175.0790  180.0810   99.0470 C.3   111  GLY111      0.2014
     94  C        173.6760  180.2580   99.5730 C.2   111  GLY111      0.2639
     95  O        173.3020  181.3390  100.0350 O.2   111  GLY111     -0.2714
     96  N        172.8810  179.1940   99.4900 N.am  112  LYS112     -0.1963
     97  CA       171.5540  179.2000  100.0870 C.3   112  LYS112      0.1728
     98  C        171.6390  178.9250  101.5780 C.2   112  LYS112      0.2616
     99  O        171.2560  179.7610  102.4080 O.2   112  LYS112     -0.2715
    100  CB       170.6800  178.1500   99.4150 C.3   112  LYS112      0.0311
    101  CG       170.3530  178.4460   97.9930 C.3   112  LYS112      0.0038
    102  CD       169.4090  177.4410   97.4090 C.3   112  LYS112      0.0206
    103  CE       170.1160  176.3260   96.6780 C.3   112  LYS112      0.1093
    104  NZ       170.8660  175.3780   97.5540 N.3   112  LYS112     -0.1314
    105  N        172.1630  177.7500  101.9290 N.am  113  ASN113     -0.1958
    106  CA       172.3480  177.4100  103.3300 C.3   113  ASN113      0.1819
    107  C        173.2860  178.3860  104.0090 C.2   113  ASN113      0.2621
    108  O        173.1890  178.5950  105.2190 O.2   113  ASN113     -0.2715
    109  CB       172.8960  175.9960  103.4670 C.3   113  ASN113      0.1195
    110  CG       171.9530  174.9460  102.9390 C.2   113  ASN113      0.2630
    111  OD1      172.1700  174.3710  101.8750 O.2   113  ASN113     -0.2716
    112  ND2      170.9100  174.6670  103.6980 N.am  113  ASN113     -0.0877
    113  N        174.1770  179.0170  103.2470 N.am  114  HIS114     -0.1973
    114  CA       175.1190  179.9540  103.8380 C.3   114  HIS114      0.1656
    115  C        174.3950  181.1380  104.4580 C.2   114  HIS114      0.2291
    116  O        174.6220  181.4870  105.6210 O.2   114  HIS114     -0.2864
    117  CB       176.1080  180.4250  102.7820 C.3   114  HIS114      0.0771
    118  CG       177.1330  181.3810  103.2980 C.ar  114  HIS114      0.0820
    119  ND1      178.2730  180.9710  103.9530 N.ar  114  HIS114     -0.2267
    120  CD2      177.1900  182.7310  103.2500 C.ar  114  HIS114      0.1154
    121  CE1      178.9900  182.0300  104.2830 C.ar  114  HIS114      0.1986
    122  NE2      178.3550  183.1100  103.8690 N.ar  114  HIS114     -0.2212
    123  N        180.0400  178.0930   93.5760 N.3   236  TYR236     -0.1241
    124  CA       181.2870  178.4420   94.2290 C.3   236  TYR236      0.1605
    125  C        182.3550  177.3750   94.0430 C.2   236  TYR236      0.2264
    126  O        183.5350  177.6420   94.2900 O.2   236  TYR236     -0.2867
    127  CB       181.0170  178.6570   95.7130 C.3   236  TYR236      0.0534
    128  CG       182.2050  179.0540   96.5300 C.ar  236  TYR236     -0.0201
    129  CD1      182.6290  180.3650   96.5660 C.ar  236  TYR236     -0.0009
    130  CD2      182.8930  178.1200   97.2840 C.ar  236  TYR236     -0.0009
    131  CE1      183.7070  180.7360   97.3170 C.ar  236  TYR236      0.0417
    132  CE2      183.9760  178.4830   98.0420 C.ar  236  TYR236      0.0417
    133  CZ       184.3780  179.7940   98.0550 C.ar  236  TYR236      0.1957
    134  OH       185.4580  180.1590   98.8120 O.3   236  TYR236     -0.2866
@<TRIPOS>BOND
     1    59    58    2
     2    58    57    1
     3    63    62   ar
     4    80    74    1
     5    80    79    1
     6    60    57    1
     7    60    61    1
     8    57    56    1
     9    62    61    1
    10    62    64   ar
    11    77    76    2
    12    74    75    1
    13    91    89    1
    14   123   124    1
    15    79    78    1
    16   125   124    1
    17   125   126    2
    18   124   127    1
    19    76    75    1
    20    76    81   am
    21    65    66    1
    22    78    75    1
    23    73    71   am
    24    54    53    1
    25    55    53    1
    26    89    86    1
    27    89    90    1
    28    71    70    1
    29    71    72    2
    30    70    69    1
    31    84    83    2
    32    53    52    2
    33    83    82    1
    34    83    85   am
    35    86    85    1
    36    86    87    1
    37    81    82    1
    38    69    66    1
    39    66    67    1
    40   127   128    1
    41   128   129   ar
    42   128   130   ar
    43   129   131   ar
    44    52    51    1
    45    88    87    2
    46    87    92   am
    47    67    68    2
    48   103   102    1
    49   103   104    1
    50   130   132   ar
    51   131   133   ar
    52    51    50    1
    53    48    47    2
    54   102   101    1
    55    44    43    1
    56    92    93    1
    57    50    49    1
    58   101   100    1
    59    47    46    1
    60   132   133   ar
    61   133   134    1
    62    49    46    1
    63    43    42   ar
    64    43    41   ar
    65    93    94    1
    66    42    40   ar
    67    46    45    1
    68   100    97    1
    69    96    94   am
    70    96    97    1
    71    94    95    2
    72    41    39   ar
    73    97    98    1
    74    45    35   am
    75    40    38   ar
    76    39    38   ar
    77    36    35    2
    78    38    37    1
    79    35    34    1
    80    98   105   am
    81    98    99    2
    82   111   110    2
    83   105   106    1
    84    34    37    1
    85    34    33    1
    86    28    27    2
    87   117   118    1
    88   117   114    1
    89   110   109    1
    90   110   112   am
    91   113   114    1
    92   113   107   am
    93   120   118   ar
    94   120   122   ar
    95   118   119   ar
    96   106   109    1
    97   106   107    1
    98    33    27   am
    99    27    26    1
   100   114   115    1
   101   122   121   ar
   102   119   121   ar
   103   107   108    2
   104    18    17   ar
   105    18    16   ar
   106   115   116    2
   107    26    29    1
   108    26    25    1
   109     8     6    1
   110    17    15   ar
   111    16    14   ar
   112    29    30    1
   113    31    30    2
   114     6     7    1
   115     6     5    1
   116    30    32   am
   117    15    14   ar
   118    14    13    1
   119    24    23    1
   120     4     3    2
   121     5     2    1
   122    13    10    1
   123     3     2    1
   124     3     9   am
   125    23    20    1
   126    22    21    2
   127     2     1    1
   128    10     9    1
   129    10    11    1
   130    20    21    1
   131    20    19    1
   132    11    12    2
