@<TRIPOS>MOLECULE
tmp/6qgeA00.pdb
 129 120 0 0 0
SMALL
GASTEIGER

@<TRIPOS>ATOM
      1  N        -12.2500   12.4660    7.2860 N.3    32  ARG32      -0.1231
      2  CA       -12.7030   11.1760    6.7860 C.3    32  ARG32       0.1694
      3  C        -11.5590   10.1800    6.8000 C.2    32  ARG32       0.2592
      4  O        -10.3890   10.5490    6.6930 O.2    32  ARG32      -0.2718
      5  CB       -13.2450   11.3190    5.3600 C.3    32  ARG32       0.0321
      6  CG       -12.2050   11.8200    4.3840 C.3    32  ARG32       0.0489
      7  CD       -12.8010   12.1080    3.0270 C.3    32  ARG32       0.2205
      8  NE       -11.7520   12.4650    2.0800 N.pl3  32  ARG32      -0.0865
      9  CZ       -11.9360   12.5940    0.7710 C.cat  32  ARG32       0.5346
     10  NH1      -13.1370   12.3900    0.2420 N.pl3  32  ARG32       0.1354
     11  NH2      -10.9140   12.9270   -0.0060 N.pl3  32  ARG32       0.1354
     12  N        -11.9270    8.9020    6.9170 N.am   33  ILE33      -0.1966
     13  CA       -11.0200    7.7650    6.7780 C.3    33  ILE33       0.1727
     14  C        -11.7370    6.7630    5.8920 C.2    33  ILE33       0.2616
     15  O        -12.9640    6.6870    5.9250 O.2    33  ILE33      -0.2715
     16  CB       -10.7540    7.1240    8.1530 C.3    33  ILE33       0.0290
     17  CG1      -10.1170    8.1440    9.0950 C.3    33  ILE33       0.0022
     18  CG2       -9.8870    5.8680    8.0200 C.3    33  ILE33       0.0023
     19  CD1      -10.1220    7.6680   10.5190 C.3    33  ILE33       0.0001
     20  N        -10.9880    5.9580    5.1370 N.am   34  ALA34      -0.1977
     21  CA       -11.6170    4.8780    4.3860 C.3    34  ALA34       0.1597
     22  C        -10.7290    3.6460    4.3210 C.2    34  ALA34       0.2287
     23  O         -9.5300    3.7400    4.0390 O.2    34  ALA34      -0.2864
     24  CB       -11.9890    5.2890    2.9590 C.3    34  ALA34       0.0319
     25  N        -10.8860    0.1770    1.9860 N.3    36  ASP36      -0.1239
     26  CA       -11.5130   -0.3370    0.7690 C.3    36  ASP36       0.1674
     27  C        -10.9770   -1.7310    0.4890 C.2    36  ASP36       0.2266
     28  O         -9.8510   -1.8790    0.0160 O.2    36  ASP36      -0.2867
     29  CB       -11.2230    0.5870   -0.4120 C.3    36  ASP36       0.1410
     30  CG       -11.9800    1.8830   -0.3080 C.2    36  ASP36       0.3668
     31  OD1      -13.1900    1.8520   -0.5610 O.co2  36  ASP36      -0.2456
     32  OD2      -11.3980    2.9140    0.0820 O.co2  36  ASP36      -0.2456
     33  N        -16.3740   -1.0410    1.6720 N.3    46  HIS46      -0.1241
     34  CA       -15.8950    0.3110    1.9490 C.3    46  HIS46       0.1621
     35  C        -16.3540    0.6630    3.3520 C.2    46  HIS46       0.2264
     36  O        -17.5520    0.5970    3.6340 O.2    46  HIS46      -0.2867
     37  CB       -16.5350    1.2390    0.9170 C.3    46  HIS46       0.0745
     38  CG       -16.2670    2.7060    1.0750 C.ar   46  HIS46       0.0817
     39  ND1      -15.0840    3.2990    0.6900 N.ar   46  HIS46      -0.2268
     40  CD2      -17.0920    3.7200    1.4360 C.ar   46  HIS46       0.1154
     41  CE1      -15.1830    4.6130    0.8310 C.ar   46  HIS46       0.1986
     42  NE2      -16.3960    4.8960    1.2720 N.ar   46  HIS46      -0.2212
     43  N        -16.0730    3.6680    6.0630 N.3    48  ASN48      -0.1240
     44  CA       -15.8160    5.0970    5.8630 C.3    48  ASN48       0.1653
     45  C        -16.3180    5.9420    7.0280 C.2    48  ASN48       0.2266
     46  O        -17.4140    6.5140    6.9790 O.2    48  ASN48      -0.2867
     47  CB       -16.4500    5.5130    4.5280 C.3    48  ASN48       0.1155
     48  CG       -16.3880    6.9940    4.2240 C.2    48  ASN48       0.2627
     49  OD1      -17.3370    7.5220    3.6430 O.2    48  ASN48      -0.2716
     50  ND2      -15.2860    7.6630    4.5560 N.am   48  ASN48      -0.0877
     51  N        -16.8450    9.2370    8.8450 N.3    50  ARG50      -0.1245
     52  CA       -17.0160   10.6400    8.4820 C.3    50  ARG50       0.1563
     53  C        -17.1310   11.4440    9.7690 C.2    50  ARG50       0.2260
     54  O        -18.0370   11.2110   10.5690 O.2    50  ARG50      -0.2867
     55  CB       -18.2770   10.7950    7.6400 C.3    50  ARG50       0.0307
     56  CG       -18.2350   10.0070    6.3430 C.3    50  ARG50       0.0489
     57  CD       -19.4670   10.2090    5.4870 C.3    50  ARG50       0.2205
     58  NE       -19.3340    9.3400    4.3190 N.pl3  50  ARG50      -0.0865
     59  CZ       -20.1480    9.3300    3.2700 C.cat  50  ARG50       0.5346
     60  NH1      -21.1950   10.1330    3.2290 N.pl3  50  ARG50       0.1354
     61  NH2      -19.9250    8.4920    2.2640 N.pl3  50  ARG50       0.1354
     62  N        -20.2760   15.0770    8.7720 N.3    53  GLU53      -0.1245
     63  CA       -21.3260   15.0220    7.7710 C.3    53  GLU53       0.1567
     64  C        -22.5200   15.7440    8.3710 C.2    53  GLU53       0.2260
     65  O        -23.1830   15.2310    9.2710 O.2    53  GLU53      -0.2867
     66  CB       -21.6700   13.5820    7.4320 C.3    53  GLU53       0.0388
     67  CG       -22.6330   13.5170    6.2800 C.3    53  GLU53       0.1160
     68  CD       -23.1760   12.1420    6.0520 C.2    53  GLU53       0.3649
     69  OE1      -23.8600   11.6180    6.9640 O.co2  53  GLU53      -0.2457
     70  OE2      -22.9360   11.6030    4.9470 O.co2  53  GLU53      -0.2457
     71  N        -20.0550    5.1520    7.4730 N.3    60  VAL60      -0.1245
     72  CA       -20.7670    4.7140    6.2770 C.3    60  VAL60       0.1561
     73  C        -20.0500    3.4930    5.7160 C.2    60  VAL60       0.2260
     74  O        -18.8250    3.5070    5.5470 O.2    60  VAL60      -0.2867
     75  CB       -20.8060    5.8410    5.2270 C.3    60  VAL60       0.0252
     76  CG1      -21.3420    5.3290    3.8950 C.3    60  VAL60       0.0019
     77  CG2      -21.6310    7.0210    5.7330 C.3    60  VAL60       0.0019
     78  N        -20.3820    0.5790    2.4200 N.3    62  ASN62      -0.1240
     79  CA       -21.0120    0.3780    1.1170 C.3    62  ASN62       0.1653
     80  C        -20.1360   -0.5320    0.2550 C.2    62  ASN62       0.2266
     81  O        -19.0320   -0.9320    0.6420 O.2    62  ASN62      -0.2867
     82  CB       -21.2880    1.7350    0.4550 C.3    62  ASN62       0.1155
     83  CG       -22.4520    1.7140   -0.5270 C.2    62  ASN62       0.2627
     84  OD1      -22.9750    0.6650   -0.9050 O.2    62  ASN62      -0.2716
     85  ND2      -22.8640    2.8990   -0.9340 N.am   62  ASN62      -0.0877
     86  N        -21.8070    3.0690   -6.5930 N.3    69  TRP69      -0.1241
     87  CA       -22.0630    2.7880   -5.1870 C.3    69  TRP69       0.1605
     88  C        -23.4710    2.2370   -4.9890 C.2    69  TRP69       0.2264
     89  O        -24.4300    2.6550   -5.6470 O.2    69  TRP69      -0.2867
     90  CB       -21.8660    4.0530   -4.3460 C.3    69  TRP69       0.0550
     91  CG       -20.4430    4.4490   -4.2250 C.ar   69  TRP69       0.0003
     92  CD1      -19.8340    5.5150   -4.8060 C.ar   69  TRP69       0.0946
     93  CD2      -19.4320    3.7620   -3.4860 C.ar   69  TRP69       0.0152
     94  NE1      -18.5040    5.5420   -4.4750 N.ar   69  TRP69      -0.2442
     95  CE2      -18.2340    4.4730   -3.6620 C.ar   69  TRP69       0.0810
     96  CE3      -19.4300    2.6140   -2.6820 C.ar   69  TRP69       0.0012
     97  CZ2      -17.0450    4.0750   -3.0730 C.ar   69  TRP69       0.0191
     98  CZ3      -18.2510    2.2280   -2.0940 C.ar   69  TRP69       0.0001
     99  CH2      -17.0740    2.9530   -2.2850 C.ar   69  TRP69       0.0015
    100  N        -26.0870    2.4020    1.1780 N.3    72  GLU72      -0.1245
    101  CA       -25.2410    2.5700    2.3450 C.3    72  GLU72       0.1567
    102  C        -25.8400    1.8820    3.5630 C.2    72  GLU72       0.2260
    103  O        -27.0620    1.7930    3.7290 O.2    72  GLU72      -0.2867
    104  CB       -25.0620    4.0500    2.6710 C.3    72  GLU72       0.0388
    105  CG       -24.2820    4.8150    1.6380 C.3    72  GLU72       0.1160
    106  CD       -24.0210    6.2740    2.0010 C.2    72  GLU72       0.3649
    107  OE1      -24.6350    6.8020    2.9630 O.co2  72  GLU72      -0.2457
    108  OE2      -23.1790    6.8920    1.3090 O.co2  72  GLU72      -0.2457
    109  N        -25.3560    2.4950    7.6680 N.3    74  ARG74      -0.1245
    110  CA       -24.8390    3.5550    8.5330 C.3    74  ARG74       0.1563
    111  C        -24.8310    3.1400   10.0000 C.2    74  ARG74       0.2260
    112  O        -25.7400    2.4610   10.4680 O.2    74  ARG74      -0.2867
    113  CB       -25.6480    4.8400    8.3410 C.3    74  ARG74       0.0307
    114  CG       -25.3110    5.5020    7.0490 C.3    74  ARG74       0.0489
    115  CD       -26.2680    6.6030    6.6380 C.3    74  ARG74       0.2205
    116  NE       -25.6480    7.3490    5.5460 N.pl3  74  ARG74      -0.0865
    117  CZ       -25.0740    8.5380    5.6650 C.cat  74  ARG74       0.5346
    118  NH1      -25.0950    9.1910    6.8220 N.pl3  74  ARG74       0.1354
    119  NH2      -24.5010    9.0790    4.6060 N.pl3  74  ARG74       0.1354
    120  N         -6.9860    4.8620    3.2670 N.3   125  SER125     -0.1202
    121  CA        -6.8730    6.2520    2.8500 C.3   125  SER125      0.2020
    122  C         -7.5630    7.1720    3.8460 C.2   125  SER125      0.2619
    123  O         -8.3340    6.7430    4.7100 O.2   125  SER125     -0.2717
    124  CB        -7.4520    6.4560    1.4420 C.3   125  SER125      0.2103
    125  OG        -8.8400    6.1680    1.4110 O.3   125  SER125     -0.2182
    126  N         -7.2800    8.4590    3.7000 N.am  126  GLY126     -0.1956
    127  CA        -7.8740    9.4780    4.5300 C.3   126  GLY126      0.1869
    128  C         -6.9470   10.0220    5.5910 C.2   126  GLY126      0.2309
    129  O         -5.7200    9.9820    5.4930 O.2   126  GLY126     -0.2863
@<TRIPOS>BOND
     1    86    87    1
     2    89    88    2
     3    87    88    1
     4    87    90    1
     5    92    94   ar
     6    92    91   ar
     7    94    95   ar
     8    90    91    1
     9    91    93   ar
    10    95    93   ar
    11    95    97   ar
    12    93    96   ar
    13    97    99   ar
    14    96    98   ar
    15    99    98   ar
    16    85    83   am
    17    84    83    2
    18    31    30   ar
    19    83    82    1
    20    29    30    1
    21    29    26    1
    22    30    32   ar
    23    11     9    1
    24    28    27    2
    25    10     9    1
    26    80    81    2
    27    80    79    1
    28    82    79    1
    29    27    26    1
    30    39    41   ar
    31    39    38   ar
    32    26    25    1
    33     9     8    2
    34    41    42   ar
    35    37    38    1
    36    37    34    1
    37    38    40   ar
    38    79    78    1
    39   100   101    1
    40    42    40   ar
    41   108   106   ar
    42   125   124    1
    43   124   121    1
    44   105   106    1
    45   105   104    1
    46    33    34    1
    47    34    35    1
    48   106   107   ar
    49     8     7    1
    50    61    59    1
    51   101   104    1
    52   101   102    1
    53   121   120    1
    54   121   122    1
    55    24    21    1
    56     7     6    1
    57    60    59    1
    58    59    58    2
    59    35    36    2
    60   102   103    2
    61    49    48    2
    62   126   122   am
    63   126   127    1
    64   122   123    2
    65    76    75    1
    66    23    22    2
    67    48    47    1
    68    48    50   am
    69    58    57    1
    70    22    21    1
    71     6     5    1
    72    21    20    1
    73    47    44    1
    74   127   128    1
    75   119   117    1
    76    70    68   ar
    77    20    14   am
    78    75    77    1
    79    75    72    1
    80     5     2    1
    81    57    56    1
    82   129   128    2
    83   116   117    2
    84   116   115    1
    85    74    73    2
    86   117   118    1
    87    73    72    1
    88    44    43    1
    89    44    45    1
    90    14    15    2
    91    14    13    1
    92    68    67    1
    93    68    69   ar
    94    72    71    1
    95    67    66    1
    96    56    55    1
    97   115   114    1
    98     4     3    2
    99    13    12    1
   100    13    16    1
   101     2     3    1
   102     2     1    1
   103     3    12   am
   104    46    45    2
   105   114   113    1
   106    66    63    1
   107    55    52    1
   108   109   110    1
   109    63    64    1
   110    63    62    1
   111    18    16    1
   112    16    17    1
   113   113   110    1
   114    64    65    2
   115    52    51    1
   116    52    53    1
   117   110   111    1
   118    17    19    1
   119    53    54    2
   120   111   112    2
