@<TRIPOS>MOLECULE
tmp/6qgfA00.pdb
 129 120 0 0 0
SMALL
GASTEIGER

@<TRIPOS>ATOM
      1  N        -12.3550   12.5100    7.0610 N.3    32  ARG32      -0.1231
      2  CA       -12.7910   11.2070    6.6080 C.3    32  ARG32       0.1694
      3  C        -11.6360   10.2250    6.6020 C.2    32  ARG32       0.2592
      4  O        -10.4630   10.6240    6.4970 O.2    32  ARG32      -0.2718
      5  CB       -13.3690   11.3510    5.2070 C.3    32  ARG32       0.0321
      6  CG       -12.3770   11.7990    4.1880 C.3    32  ARG32       0.0489
      7  CD       -13.0680   12.0570    2.8770 C.3    32  ARG32       0.2205
      8  NE       -12.1150   12.3030    1.8030 N.pl3  32  ARG32      -0.0865
      9  CZ       -12.4800   12.5130    0.5410 C.cat  32  ARG32       0.5346
     10  NH1      -13.7750   12.4900    0.2180 N.pl3  32  ARG32       0.1354
     11  NH2      -11.5660   12.7320   -0.4000 N.pl3  32  ARG32       0.1354
     12  N        -11.9750    8.9350    6.7140 N.am   33  ILE33      -0.1966
     13  CA       -11.0410    7.8370    6.5950 C.3    33  ILE33       0.1727
     14  C        -11.7510    6.7880    5.7420 C.2    33  ILE33       0.2616
     15  O        -12.9700    6.6910    5.7920 O.2    33  ILE33      -0.2715
     16  CB       -10.7660    7.2010    7.9690 C.3    33  ILE33       0.0290
     17  CG1      -10.1700    8.2350    8.9310 C.3    33  ILE33       0.0022
     18  CG2       -9.8500    5.9550    7.8170 C.3    33  ILE33       0.0023
     19  CD1      -10.1230    7.7700   10.3600 C.3    33  ILE33       0.0001
     20  N        -11.0040    6.0030    4.9570 N.am   34  ALA34      -0.1977
     21  CA       -11.6400    4.9080    4.2220 C.3    34  ALA34       0.1597
     22  C        -10.7260    3.6950    4.1440 C.2    34  ALA34       0.2287
     23  O         -9.5170    3.8070    3.8930 O.2    34  ALA34      -0.2864
     24  CB       -12.0130    5.3470    2.7920 C.3    34  ALA34       0.0319
     25  N        -10.8290    0.2060    1.8590 N.3    36  ASP36      -0.1239
     26  CA       -11.4340   -0.3540    0.6520 C.3    36  ASP36       0.1674
     27  C        -10.8750   -1.7330    0.3580 C.2    36  ASP36       0.2266
     28  O         -9.7670   -1.8420   -0.0990 O.2    36  ASP36      -0.2867
     29  CB       -11.1890    0.5790   -0.5440 C.3    36  ASP36       0.1410
     30  CG       -11.9700    1.8500   -0.4340 C.2    36  ASP36       0.3668
     31  OD1      -13.1740    1.7890   -0.6690 O.co2  36  ASP36      -0.2456
     32  OD2      -11.4150    2.8830   -0.0230 O.co2  36  ASP36      -0.2456
     33  N        -16.2930   -1.1590    1.5780 N.3    46  HIS46      -0.1241
     34  CA       -15.8600    0.2080    1.8460 C.3    46  HIS46       0.1621
     35  C        -16.3410    0.5590    3.2300 C.2    46  HIS46       0.2264
     36  O        -17.5180    0.4340    3.5340 O.2    46  HIS46      -0.2867
     37  CB       -16.5010    1.1010    0.7900 C.3    46  HIS46       0.0745
     38  CG       -16.2790    2.5870    0.9340 C.ar   46  HIS46       0.0817
     39  ND1      -15.1040    3.2200    0.5680 N.ar   46  HIS46      -0.2268
     40  CD2      -17.1470    3.5700    1.2780 C.ar   46  HIS46       0.1154
     41  CE1      -15.2630    4.5350    0.6960 C.ar   46  HIS46       0.1986
     42  NE2      -16.4880    4.7720    1.1350 N.ar   46  HIS46      -0.2212
     43  N        -16.0800    3.6180    5.8780 N.3    48  ASN48      -0.1240
     44  CA       -15.8440    5.0520    5.6810 C.3    48  ASN48       0.1653
     45  C        -16.3490    5.9000    6.8490 C.2    48  ASN48       0.2266
     46  O        -17.4550    6.4330    6.8080 O.2    48  ASN48      -0.2867
     47  CB       -16.4960    5.4770    4.3350 C.3    48  ASN48       0.1155
     48  CG       -16.4160    6.9680    4.0310 C.2    48  ASN48       0.2627
     49  OD1      -17.3270    7.4890    3.4130 O.2    48  ASN48      -0.2716
     50  ND2      -15.3500    7.6440    4.4430 N.am   48  ASN48      -0.0877
     51  N        -16.9100    9.1930    8.6070 N.3    50  ARG50      -0.1245
     52  CA       -17.0920   10.5960    8.2240 C.3    50  ARG50       0.1563
     53  C        -17.2060   11.4080    9.5210 C.2    50  ARG50       0.2260
     54  O        -18.0990   11.1820   10.3240 O.2    50  ARG50      -0.2867
     55  CB       -18.3430   10.7720    7.3710 C.3    50  ARG50       0.0307
     56  CG       -18.3140    9.8990    6.0890 C.3    50  ARG50       0.0489
     57  CD       -19.5400   10.1030    5.2520 C.3    50  ARG50       0.2205
     58  NE       -19.4200    9.2370    4.0860 N.pl3  50  ARG50      -0.0865
     59  CZ       -20.2750    9.1530    3.0750 C.cat  50  ARG50       0.5346
     60  NH1      -21.3890    9.8700    3.0490 N.pl3  50  ARG50       0.1354
     61  NH2      -20.0140    8.2940    2.0810 N.pl3  50  ARG50       0.1354
     62  N        -20.2880   15.0550    8.4910 N.3    53  GLU53      -0.1245
     63  CA       -21.3270   14.9840    7.4860 C.3    53  GLU53       0.1567
     64  C        -22.5590   15.6870    8.0630 C.2    53  GLU53       0.2260
     65  O        -23.2370   15.1700    8.9530 O.2    53  GLU53      -0.2867
     66  CB       -21.6550   13.5320    7.1130 C.3    53  GLU53       0.0388
     67  CG       -22.6620   13.4510    5.9490 C.3    53  GLU53       0.1160
     68  CD       -23.2070   12.0590    5.7600 C.2    53  GLU53       0.3649
     69  OE1      -23.8330   11.5210    6.6950 O.co2  53  GLU53      -0.2457
     70  OE2      -23.0270   11.4890    4.6730 O.co2  53  GLU53      -0.2457
     71  N        -20.0430    5.0570    7.2540 N.3    60  VAL60      -0.1245
     72  CA       -20.7670    4.5940    6.0860 C.3    60  VAL60       0.1561
     73  C        -20.0420    3.3830    5.5210 C.2    60  VAL60       0.2260
     74  O        -18.8330    3.4480    5.2860 O.2    60  VAL60      -0.2867
     75  CB       -20.8340    5.6930    5.0270 C.3    60  VAL60       0.0252
     76  CG1      -21.4800    5.1790    3.7610 C.3    60  VAL60       0.0019
     77  CG2      -21.6330    6.8920    5.5800 C.3    60  VAL60       0.0019
     78  N        -20.3470    0.3590    2.3070 N.3    62  ASN62      -0.1240
     79  CA       -21.0000    0.1110    1.0330 C.3    62  ASN62       0.1653
     80  C        -20.0850   -0.7720    0.1660 C.2    62  ASN62       0.2266
     81  O        -18.9720   -1.1410    0.5580 O.2    62  ASN62      -0.2867
     82  CB       -21.3250    1.4560    0.3610 C.3    62  ASN62       0.1155
     83  CG       -22.4970    1.3780   -0.6170 C.2    62  ASN62       0.2627
     84  OD1      -22.9670    0.2920   -0.9790 O.2    62  ASN62      -0.2716
     85  ND2      -22.9660    2.5530   -1.0550 N.am   62  ASN62      -0.0877
     86  N        -21.9050    2.6970   -6.6630 N.3    69  TRP69      -0.1241
     87  CA       -22.1440    2.4350   -5.2450 C.3    69  TRP69       0.1605
     88  C        -23.5400    1.8650   -5.0590 C.2    69  TRP69       0.2264
     89  O        -24.4880    2.2600   -5.7520 O.2    69  TRP69      -0.2867
     90  CB       -21.9990    3.7190   -4.4450 C.3    69  TRP69       0.0550
     91  CG       -20.5940    4.1480   -4.3390 C.ar   69  TRP69       0.0003
     92  CD1      -20.0310    5.2330   -4.9360 C.ar   69  TRP69       0.0946
     93  CD2      -19.5590    3.5130   -3.5900 C.ar   69  TRP69       0.0152
     94  NE1      -18.6960    5.3110   -4.6080 N.ar   69  TRP69      -0.2442
     95  CE2      -18.3820    4.2590   -3.7870 C.ar   69  TRP69       0.0810
     96  CE3      -19.5080    2.3690   -2.7940 C.ar   69  TRP69       0.0012
     97  CZ2      -17.1720    3.9160   -3.1780 C.ar   69  TRP69       0.0191
     98  CZ3      -18.3110    2.0190   -2.2080 C.ar   69  TRP69       0.0001
     99  CH2      -17.1550    2.7840   -2.4000 C.ar   69  TRP69       0.0015
    100  N        -26.1550    2.0550    1.1110 N.3    72  GLU72      -0.1245
    101  CA       -25.3050    2.2740    2.2730 C.3    72  GLU72       0.1567
    102  C        -25.8380    1.5760    3.5130 C.2    72  GLU72       0.2260
    103  O        -27.0490    1.4610    3.7130 O.2    72  GLU72      -0.2867
    104  CB       -25.1750    3.7760    2.5600 C.3    72  GLU72       0.0388
    105  CG       -24.4190    4.5190    1.4750 C.3    72  GLU72       0.1160
    106  CD       -24.2870    6.0040    1.6920 C.2    72  GLU72       0.3649
    107  OE1      -24.9690    6.5650    2.5620 O.co2  72  GLU72      -0.2457
    108  OE2      -23.4530    6.6040    0.9900 O.co2  72  GLU72      -0.2457
    109  N        -25.3250    2.3240    7.4700 N.3    74  ARG74      -0.1245
    110  CA       -24.8030    3.3730    8.3480 C.3    74  ARG74       0.1563
    111  C        -24.8380    3.0130    9.8340 C.2    74  ARG74       0.2260
    112  O        -25.7870    2.4170   10.2970 O.2    74  ARG74      -0.2867
    113  CB       -25.5800    4.6530    8.0930 C.3    74  ARG74       0.0307
    114  CG       -25.2420    5.3260    6.7670 C.3    74  ARG74       0.0489
    115  CD       -26.2310    6.4210    6.3230 C.3    74  ARG74       0.2205
    116  NE       -25.6350    7.1730    5.2330 N.pl3  74  ARG74      -0.0865
    117  CZ       -25.0700    8.3790    5.3530 C.cat  74  ARG74       0.5346
    118  NH1      -25.0460    9.0430    6.5150 N.pl3  74  ARG74       0.1354
    119  NH2      -24.5120    8.9230    4.2990 N.pl3  74  ARG74       0.1354
    120  N         -7.0140    4.9680    3.0680 N.3   125  SER125     -0.1202
    121  CA        -6.9030    6.3660    2.6640 C.3   125  SER125      0.2020
    122  C         -7.5980    7.2820    3.6520 C.2   125  SER125      0.2619
    123  O         -8.3840    6.8380    4.4970 O.2   125  SER125     -0.2717
    124  CB        -7.5140    6.5590    1.2800 C.3   125  SER125      0.2103
    125  OG        -8.8520    6.1170    1.2930 O.3   125  SER125     -0.2182
    126  N         -7.3110    8.5720    3.5220 N.am  126  GLY126     -0.1956
    127  CA        -7.9230    9.5680    4.3570 C.3   126  GLY126      0.1869
    128  C         -7.0120   10.1590    5.3870 C.2   126  GLY126      0.2309
    129  O         -5.7870   10.1420    5.2950 O.2   126  GLY126     -0.2863
@<TRIPOS>BOND
     1    86    87    1
     2    89    88    2
     3    87    88    1
     4    87    90    1
     5    92    94   ar
     6    92    91   ar
     7    94    95   ar
     8    90    91    1
     9    91    93   ar
    10    95    93   ar
    11    95    97   ar
    12    93    96   ar
    13    97    99   ar
    14    96    98   ar
    15    99    98   ar
    16    85    83   am
    17    84    83    2
    18    31    30   ar
    19    83    82    1
    20    29    30    1
    21    29    26    1
    22    30    32   ar
    23    11     9    1
    24    28    27    2
    25    80    81    2
    26    80    79    1
    27    10     9    1
    28    27    26    1
    29    82    79    1
    30     9     8    2
    31    39    41   ar
    32    39    38   ar
    33    26    25    1
    34    41    42   ar
    35    37    38    1
    36    37    34    1
    37    38    40   ar
    38   108   106   ar
    39    79    78    1
    40   100   101    1
    41    42    40   ar
    42   124   125    1
    43   124   121    1
    44   105   106    1
    45   105   104    1
    46    33    34    1
    47   106   107   ar
    48     8     7    1
    49    34    35    1
    50    61    59    1
    51   101   104    1
    52   101   102    1
    53   121   120    1
    54   121   122    1
    55    24    21    1
    56     7     6    1
    57    60    59    1
    58    59    58    2
    59    35    36    2
    60    49    48    2
    61   102   103    2
    62   126   122   am
    63   126   127    1
    64   122   123    2
    65    76    75    1
    66    23    22    2
    67    48    47    1
    68    48    50   am
    69    58    57    1
    70    22    21    1
    71     6     5    1
    72    21    20    1
    73   119   117    1
    74    47    44    1
    75   127   128    1
    76    70    68   ar
    77    20    14   am
    78    75    77    1
    79    75    72    1
    80     5     2    1
    81   116   117    2
    82   116   115    1
    83    57    56    1
    84    74    73    2
    85   129   128    2
    86   117   118    1
    87    73    72    1
    88    44    43    1
    89    44    45    1
    90    14    15    2
    91    14    13    1
    92    68    67    1
    93    68    69   ar
    94    67    66    1
    95    72    71    1
    96    56    55    1
    97   115   114    1
    98     4     3    2
    99    13    12    1
   100    13    16    1
   101     3     2    1
   102     3    12   am
   103     2     1    1
   104   114   113    1
   105    46    45    2
   106    66    63    1
   107    55    52    1
   108   109   110    1
   109    63    64    1
   110    63    62    1
   111    18    16    1
   112    16    17    1
   113    64    65    2
   114   113   110    1
   115    52    51    1
   116    52    53    1
   117   110   111    1
   118    17    19    1
   119    53    54    2
   120   111   112    2
