@<TRIPOS>MOLECULE
tmp/6qh9A00.pdb
 127 124 0 0 0
SMALL
GASTEIGER

@<TRIPOS>ATOM
      1  N        -27.8080   -9.9790  -22.4300 N.3    25  LEU25      -0.1231
      2  CA       -26.7810   -9.2120  -21.7270 C.3    25  LEU25       0.1693
      3  C        -26.0030   -8.2180  -22.6280 C.2    25  LEU25       0.2592
      4  O        -25.9050   -7.0410  -22.2940 O.2    25  LEU25      -0.2718
      5  CB       -25.8040  -10.1880  -21.0190 C.3    25  LEU25       0.0284
      6  CG       -24.4830   -9.6090  -20.4660 C.3    25  LEU25       0.0019
      7  CD1      -24.6880   -8.8850  -19.1220 C.3    25  LEU25       0.0001
      8  CD2      -23.4360  -10.6780  -20.3440 C.3    25  LEU25       0.0001
      9  N        -25.4080   -8.7110  -23.7300 N.am   26  CYS26      -0.1970
     10  CA       -24.5150   -7.9470  -24.6030 C.3    26  CYS26       0.1712
     11  C        -24.6870   -8.3320  -26.0600 C.2    26  CYS26       0.2296
     12  O        -25.3640   -9.2980  -26.4080 O.2    26  CYS26      -0.2864
     13  CB       -23.0560   -8.1940  -24.1830 C.3    26  CYS26       0.0983
     14  SG       -22.4650   -7.2020  -22.7840 S.3    26  CYS26      -0.0798
     15  N        -16.1300   -6.2410  -20.0350 N.3    41  HIS41      -0.1241
     16  CA       -17.1260   -6.0310  -18.9700 C.3    41  HIS41       0.1621
     17  C        -18.3820   -6.8750  -19.1880 C.2    41  HIS41       0.2264
     18  O        -19.2440   -6.9030  -18.3150 O.2    41  HIS41      -0.2867
     19  CB       -17.4540   -4.5320  -18.7110 C.3    41  HIS41       0.0745
     20  CG       -18.2070   -3.8480  -19.8020 C.ar   41  HIS41       0.0817
     21  ND1      -17.5590   -3.1010  -20.7570 N.ar   41  HIS41      -0.2268
     22  CD2      -19.5390   -3.7880  -20.0260 C.ar   41  HIS41       0.1154
     23  CE1      -18.5060   -2.6360  -21.5570 C.ar   41  HIS41       0.1986
     24  NE2      -19.7150   -3.0270  -21.1550 N.ar   41  HIS41      -0.2212
     25  N        -26.8690    6.9010  -31.0760 N.3   170  ASP170     -0.1225
     26  CA       -25.8440    6.3800  -30.1820 C.3   170  ASP170      0.1805
     27  C        -26.1420    4.9670  -29.7220 C.2   170  ASP170      0.2598
     28  O        -27.2920    4.5640  -29.7250 O.2   170  ASP170     -0.2718
     29  CB       -25.8100    7.3180  -28.9300 C.3   170  ASP170      0.1424
     30  CG       -24.6150    7.2150  -27.9890 C.2   170  ASP170      0.3668
     31  OD1      -23.5550    6.6550  -28.4080 O.co2 170  ASP170     -0.2456
     32  OD2      -24.7070    7.7450  -26.8620 O.co2 170  ASP170     -0.2456
     33  N        -25.1120    4.2200  -29.3160 N.am  171  SER171     -0.1938
     34  CA       -25.3140    2.8860  -28.7510 C.3   171  SER171      0.2055
     35  C        -25.7770    3.0850  -27.2870 C.2   171  SER171      0.2643
     36  O        -25.6530    4.1910  -26.7480 O.2   171  SER171     -0.2714
     37  CB       -24.0470    2.0390  -28.8600 C.3   171  SER171      0.2130
     38  OG       -22.8930    2.7220  -28.4070 O.3   171  SER171     -0.2179
     39  N        -26.3950    2.0650  -26.6860 N.am  172  CYS172     -0.1953
     40  CA       -26.9700    2.1640  -25.3390 C.3   172  CYS172      0.1843
     41  C        -26.8420    0.8670  -24.5330 C.2   172  CYS172      0.2625
     42  O        -26.0730   -0.0180  -24.9110 O.2   172  CYS172     -0.2714
     43  CB       -28.4180    2.6580  -25.4190 C.3   172  CYS172      0.0997
     44  SG       -28.9750    3.5880  -23.9600 S.3   172  CYS172     -0.0797
     45  N        -27.5640    0.7860  -23.3930 N.am  173  GLN173     -0.1963
     46  CA       -27.5840   -0.3470  -22.4700 C.3   173  GLN173      0.1733
     47  C        -28.1030   -1.5930  -23.1760 C.2   173  GLN173      0.2616
     48  O        -29.2410   -1.6130  -23.6320 O.2   173  GLN173     -0.2715
     49  CB       -28.4230   -0.0100  -21.2150 C.3   173  GLN173      0.0408
     50  CG       -27.9910    1.2730  -20.4970 C.3   173  GLN173      0.0908
     51  CD       -28.9190    1.6520  -19.3730 C.2   173  GLN173      0.2608
     52  OE1      -29.7920    2.5100  -19.5300 O.2   173  GLN173     -0.2717
     53  NE2      -28.7460    1.0320  -18.2090 N.am  173  GLN173     -0.0878
     54  N        -27.2440   -2.6060  -23.2790 N.am  174  GLY174     -0.1955
     55  CA       -27.5170   -3.8640  -23.9790 C.3   174  GLY174      0.1869
     56  C        -26.7930   -3.9590  -25.3120 C.2   174  GLY174      0.2309
     57  O        -26.8370   -5.0000  -25.9790 O.2   174  GLY174     -0.2863
     58  N        -23.3550   -3.0960  -25.5140 N.3   176  SER176     -0.1217
     59  CA       -21.9370   -3.3960  -25.2210 C.3   176  SER176      0.1889
     60  C        -21.4440   -4.6850  -25.8880 C.2   176  SER176      0.2288
     61  O        -22.1730   -5.6820  -25.8930 O.2   176  SER176     -0.2866
     62  CB       -21.6820   -3.4660  -23.7210 C.3   176  SER176      0.2089
     63  OG       -21.6310   -2.1820  -23.1210 O.3   176  SER176     -0.2183
     64  N        -18.4950   -1.7010  -28.8640 N.3   190  VAL190     -0.1231
     65  CA       -19.2170   -0.8590  -27.9180 C.3   190  VAL190      0.1692
     66  C        -18.6100   -1.0130  -26.5050 C.2   190  VAL190      0.2593
     67  O        -18.6230   -2.1070  -25.9160 O.2   190  VAL190     -0.2718
     68  CB       -20.7600   -1.0650  -27.9350 C.3   190  VAL190      0.0266
     69  CG1      -21.4450   -0.1690  -26.9050 C.3   190  VAL190      0.0020
     70  CG2      -21.3470   -0.8260  -29.3310 C.3   190  VAL190      0.0020
     71  N        -18.0530    0.0880  -25.9840 N.am  191  SER191     -0.1938
     72  CA       -17.4150    0.0360  -24.6740 C.3   191  SER191      0.2055
     73  C        -18.1520    0.8470  -23.6260 C.2   191  SER191      0.2643
     74  O        -18.6170    0.2660  -22.6520 O.2   191  SER191     -0.2714
     75  CB       -15.9400    0.4210  -24.7710 C.3   191  SER191      0.2130
     76  OG       -15.2850    0.1140  -23.5490 O.3   191  SER191     -0.2179
     77  N        -18.2660    2.1910  -23.8030 N.am  192  TRP192     -0.1959
     78  CA       -18.9640    3.0490  -22.8320 C.3   192  TRP192      0.1775
     79  C        -19.4180    4.3690  -23.4690 C.2   192  TRP192      0.2659
     80  O        -19.2400    4.5770  -24.6730 O.2   192  TRP192     -0.2711
     81  CB       -18.1080    3.2830  -21.5720 C.3   192  TRP192      0.0591
     82  CG       -16.7580    3.8960  -21.8290 C.ar  192  TRP192      0.0006
     83  CD1      -15.6500    3.2620  -22.2990 C.ar  192  TRP192      0.0946
     84  CD2      -16.3630    5.2590  -21.5680 C.ar  192  TRP192      0.0152
     85  NE1      -14.5750    4.1320  -22.3140 N.ar  192  TRP192     -0.2442
     86  CE2      -14.9930    5.3700  -21.8980 C.ar  192  TRP192      0.0810
     87  CE3      -17.0370    6.4000  -21.0870 C.ar  192  TRP192      0.0012
     88  CZ2      -14.2820    6.5750  -21.7690 C.ar  192  TRP192      0.0191
     89  CZ3      -16.3290    7.5930  -20.9630 C.ar  192  TRP192      0.0001
     90  CH2      -14.9710    7.6720  -21.3090 C.ar  192  TRP192      0.0015
     91  N        -20.0630    5.2050  -22.6820 N.am  193  GLY193     -0.1716
     92  CA       -20.5680    6.4810  -23.1660 C.2   193  GLY193      0.1480
     93  C        -21.5000    7.2110  -22.2250 C.2   193  GLY193      0.2820
     94  O        -21.6450    6.8480  -21.0550 O.2   193  GLY193     -0.2669
     95  N        -22.1390    8.2590  -22.7480 N.am  194  ASN194     -0.1923
     96  CA       -23.0520    9.0880  -21.9730 C.3   194  ASN194      0.1822
     97  C        -24.3470    8.3530  -21.5980 C.2   194  ASN194      0.2621
     98  O        -24.9260    7.6400  -22.4280 O.2   194  ASN194     -0.2715
     99  CB       -23.3540   10.3870  -22.7270 C.3   194  ASN194      0.1195
    100  CG       -23.9990   11.4450  -21.8660 C.2   194  ASN194      0.2630
    101  OD1      -23.4210   11.9220  -20.8810 O.2   194  ASN194     -0.2716
    102  ND2      -25.2130   11.8320  -22.2240 N.am  194  ASN194     -0.0877
    103  N        -24.7580    8.4960  -20.3260 N.am  195  ILE195     -0.1977
    104  CA       -26.0160    7.9640  -19.7910 C.3   195  ILE195      0.1596
    105  C        -26.7810    9.1370  -19.1300 C.2   195  ILE195      0.2287
    106  O        -26.2550    9.7300  -18.1850 O.2   195  ILE195     -0.2864
    107  CB       -25.8810    6.6910  -18.9030 C.3   195  ILE195      0.0276
    108  CG1      -25.5710    5.4530  -19.7910 C.3   195  ILE195      0.0022
    109  CG2      -27.1700    6.4550  -18.0800 C.3   195  ILE195      0.0022
    110  CD1      -25.3530    4.0970  -19.0610 C.3   195  ILE195      0.0001
    111  N        -28.3270    8.0250  -22.9480 N.3   197  CYS197     -0.1235
    112  CA       -27.7350    7.8230  -24.2720 C.3   197  CYS197      0.1677
    113  C        -28.1120    8.9340  -25.2760 C.2   197  CYS197      0.2270
    114  O        -29.2630    9.3560  -25.3260 O.2   197  CYS197     -0.2867
    115  CB       -28.0620    6.4220  -24.7890 C.3   197  CYS197      0.0956
    116  SG       -27.5960    5.0790  -23.6410 S.3   197  CYS197     -0.0801
    117  N        -19.9900    8.3290  -28.3150 N.3   204  GLY204     -0.1210
    118  CA       -19.8400    6.9990  -27.7550 C.3   204  GLY204      0.1956
    119  C        -18.3840    6.6010  -27.8000 C.2   204  GLY204      0.2611
    120  O        -17.6340    7.0250  -28.6930 O.2   204  GLY204     -0.2717
    121  N        -17.9540    5.8360  -26.7910 N.am  205  VAL205     -0.1979
    122  CA       -16.5690    5.3810  -26.7230 C.3   205  VAL205      0.1595
    123  C        -16.5510    3.8810  -27.0530 C.2   205  VAL205      0.2287
    124  O        -17.4130    3.1250  -26.6340 O.2   205  VAL205     -0.2864
    125  CB       -15.8510    5.8260  -25.4160 C.3   205  VAL205      0.0276
    126  CG1      -14.3390    5.5610  -25.4910 C.3   205  VAL205      0.0022
    127  CG2      -16.0960    7.3240  -25.1580 C.3   205  VAL205      0.0022
@<TRIPOS>BOND
     1    25    26    1
     2    26    27    1
     3    26    29    1
     4    28    27    2
     5    27    33   am
     6    70    68    1
     7    33    34    1
     8    29    30    1
     9    64    65    1
    10    37    34    1
    11    37    38    1
    12    34    35    1
    13   120   119    2
    14    31    30   ar
    15   117   118    1
    16    30    32   ar
    17    68    65    1
    18    68    69    1
    19    65    66    1
    20   119   118    1
    21   119   121   am
    22    35    36    2
    23    35    39   am
    24   123   122    1
    25   123   124    2
    26   121   122    1
    27   122   125    1
    28    39    40    1
    29    66    71   am
    30    66    67    2
    31    12    11    2
    32    11    10    1
    33    71    72    1
    34    57    56    2
    35    61    60    2
    36    60    59    1
    37    58    59    1
    38   126   125    1
    39    43    40    1
    40    43    44    1
    41   125   127    1
    42    40    41    1
    43   114   113    2
    44    56    55    1
    45   113   112    1
    46    59    62    1
    47    42    41    2
    48   115   112    1
    49   115   116    1
    50    75    72    1
    51    75    76    1
    52    72    73    1
    53    80    79    2
    54    10    13    1
    55    10     9    1
    56    41    45   am
    57   112   111    1
    58    13    14    1
    59    55    54    1
    60    44   116    1
    61    77    73   am
    62    77    78    1
    63     9     3   am
    64    62    63    1
    65    48    47    2
    66    73    74    2
    67    79    78    1
    68    79    91    1
    69    45    46    1
    70    54    47   am
    71    47    46    1
    72    92    91    2
    73    92    93    1
    74    78    81    1
    75    95    93   am
    76    95    96    1
    77    99    96    1
    78    99   100    1
    79     3     4    2
    80     3     2    1
    81    46    49    1
    82     1     2    1
    83    98    97    2
    84    85    83   ar
    85    85    86   ar
    86    83    82   ar
    87    93    94    2
    88   102   100   am
    89    96    97    1
    90    86    88   ar
    91    86    84   ar
    92   100   101    2
    93    82    81    1
    94    82    84   ar
    95    88    90   ar
    96     2     5    1
    97    97   103   am
    98    84    87   ar
    99    23    24   ar
   100    23    21   ar
   101    90    89   ar
   102    49    50    1
   103    24    22   ar
   104    87    89   ar
   105     5     6    1
   106    21    20   ar
   107    50    51    1
   108     6     8    1
   109     6     7    1
   110   103   104    1
   111    15    16    1
   112    22    20   ar
   113    20    19    1
   114   104   105    1
   115   104   107    1
   116   108   110    1
   117   108   107    1
   118    52    51    2
   119    51    53   am
   120    17    16    1
   121    17    18    2
   122   105   106    2
   123    16    19    1
   124   107   109    1
