@<TRIPOS>MOLECULE
tmp/6qhbA00.pdb
 142 139 0 0 0
SMALL
GASTEIGER

@<TRIPOS>ATOM
      1  N        -27.3500   -9.7150  -22.0720 N.3    25  LEU25      -0.1231
      2  CA       -26.3180   -8.9700  -21.3470 C.3    25  LEU25       0.1693
      3  C        -25.5210   -8.0010  -22.2300 C.2    25  LEU25       0.2592
      4  O        -25.2880   -6.8500  -21.8460 O.2    25  LEU25      -0.2718
      5  CB       -25.3640   -9.9720  -20.6730 C.3    25  LEU25       0.0284
      6  CG       -24.1170   -9.4210  -19.9960 C.3    25  LEU25       0.0019
      7  CD1      -24.4420   -8.8440  -18.6410 C.3    25  LEU25       0.0001
      8  CD2      -23.0510  -10.5000  -19.8680 C.3    25  LEU25       0.0001
      9  N        -25.0320   -8.4940  -23.3710 N.am   26  CYS26      -0.1970
     10  CA       -24.1580   -7.7320  -24.2550 C.3    26  CYS26       0.1712
     11  C        -24.3470   -8.1690  -25.6920 C.2    26  CYS26       0.2296
     12  O        -24.9680   -9.1950  -25.9920 O.2    26  CYS26      -0.2864
     13  CB       -22.6930   -7.9520  -23.8450 C.3    26  CYS26       0.0983
     14  SG       -22.1310   -6.9620  -22.4400 S.3    26  CYS26      -0.0798
     15  N        -15.7560   -5.9850  -19.9240 N.3    41  HIS41      -0.1226
     16  CA       -16.7340   -5.7400  -18.8400 C.3    41  HIS41       0.1752
     17  C        -18.0120   -6.5800  -19.0080 C.2    41  HIS41       0.2596
     18  O        -18.8440   -6.5660  -18.1070 O.2    41  HIS41      -0.2718
     19  CB       -17.0430   -4.2330  -18.6220 C.3    41  HIS41       0.0759
     20  CG       -17.9840   -3.6300  -19.6070 C.ar   41  HIS41       0.0818
     21  ND1      -17.5190   -2.9740  -20.7450 N.ar   41  HIS41      -0.2268
     22  CD2      -19.3350   -3.5380  -19.5720 C.ar   41  HIS41       0.1154
     23  CE1      -18.6000   -2.5380  -21.3780 C.ar   41  HIS41       0.1986
     24  NE2      -19.7170   -2.8590  -20.7100 N.ar   41  HIS41      -0.2212
     25  N        -18.1440   -7.3380  -20.1270 N.am   42  CYS42      -0.1970
     26  CA       -19.2660   -8.2620  -20.3520 C.3    42  CYS42       0.1712
     27  C        -19.0000   -9.6430  -19.7180 C.2    42  CYS42       0.2296
     28  O        -19.8230  -10.5440  -19.8710 O.2    42  CYS42      -0.2864
     29  CB       -19.5720   -8.3980  -21.8370 C.3    42  CYS42       0.0983
     30  SG       -20.1000   -6.8540  -22.6040 S.3    42  CYS42      -0.0798
     31  N        -19.3700  -12.5130  -17.4710 N.3    44  LYS44      -0.1245
     32  CA       -20.3770  -12.9900  -16.4920 C.3    44  LYS44       0.1561
     33  C        -20.3640  -14.5040  -16.4750 C.2    44  LYS44       0.2260
     34  O        -19.8900  -15.1040  -17.4470 O.2    44  LYS44      -0.2867
     35  CB       -21.7940  -12.4810  -16.8040 C.3    44  LYS44       0.0271
     36  CG       -22.0410  -11.0000  -16.4560 C.3    44  LYS44       0.0035
     37  CD       -22.1110  -10.7130  -14.9670 C.3    44  LYS44       0.0206
     38  CE       -22.3320   -9.2430  -14.6970 C.3    44  LYS44       0.1093
     39  NZ       -23.6970   -8.9750  -14.1610 N.3    44  LYS44      -0.1314
     40  N        -26.5300    6.9580  -30.6400 N.3   170  ASP170     -0.1225
     41  CA       -25.4570    6.4380  -29.8070 C.3   170  ASP170      0.1805
     42  C        -25.7040    5.0100  -29.3720 C.2   170  ASP170      0.2598
     43  O        -26.8500    4.5670  -29.3620 O.2   170  ASP170     -0.2718
     44  CB       -25.3870    7.3140  -28.5190 C.3   170  ASP170      0.1424
     45  CG       -24.0950    7.2920  -27.7100 C.2   170  ASP170      0.3668
     46  OD1      -23.0970    6.6510  -28.1680 O.co2 170  ASP170     -0.2456
     47  OD2      -24.0610    7.9380  -26.6390 O.co2 170  ASP170     -0.2456
     48  N        -24.6390    4.2910  -28.9730 N.am  171  SER171     -0.1938
     49  CA       -24.8160    2.9420  -28.4210 C.3   171  SER171      0.2055
     50  C        -25.1730    3.1200  -26.9320 C.2   171  SER171      0.2643
     51  O        -25.1230    4.2440  -26.4200 O.2   171  SER171     -0.2714
     52  CB       -23.5570    2.1060  -28.5950 C.3   171  SER171      0.2130
     53  OG       -22.4260    2.8340  -28.1550 O.3   171  SER171     -0.2179
     54  N        -25.5840    2.0470  -26.2490 N.am  172  CYS172     -0.1953
     55  CA       -26.0400    2.1470  -24.8520 C.3   172  CYS172      0.1843
     56  C        -25.8460    0.8210  -24.1130 C.2   172  CYS172      0.2625
     57  O        -25.2850   -0.1180  -24.6630 O.2   172  CYS172     -0.2714
     58  CB       -27.5060    2.6000  -24.8310 C.3   172  CYS172      0.0997
     59  SG       -27.9660    3.5950  -23.3850 S.3   172  CYS172     -0.0797
     60  N        -26.2940    0.7450  -22.8630 N.am  173  GLN173     -0.1963
     61  CA       -26.2190   -0.5170  -22.1060 C.3   173  GLN173      0.1733
     62  C        -27.0070   -1.5920  -22.8770 C.2   173  GLN173      0.2616
     63  O        -28.1090   -1.3270  -23.3650 O.2   173  GLN173     -0.2715
     64  CB       -26.7930   -0.3160  -20.6880 C.3   173  GLN173      0.0408
     65  CG       -26.8640   -1.6310  -19.8820 C.3   173  GLN173      0.0908
     66  CD       -27.7440   -1.5220  -18.6610 C.2   173  GLN173      0.2608
     67  OE1      -28.2710   -0.4520  -18.3210 O.2   173  GLN173     -0.2717
     68  NE2      -27.9460   -2.6480  -18.0020 N.am  173  GLN173     -0.0878
     69  N        -26.4020   -2.7730  -23.0190 N.am  174  GLY174     -0.1955
     70  CA       -26.9450   -3.9010  -23.7600 C.3   174  GLY174      0.1869
     71  C        -26.2770   -4.0190  -25.1170 C.2   174  GLY174      0.2309
     72  O        -26.2780   -5.0960  -25.7310 O.2   174  GLY174     -0.2863
     73  N        -23.1250   -3.1100  -25.4280 N.3   176  SER176     -0.1217
     74  CA       -21.7200   -3.2940  -25.0740 C.3   176  SER176      0.1889
     75  C        -21.1110   -4.5120  -25.6540 C.2   176  SER176      0.2288
     76  O        -21.7670   -5.5520  -25.6980 O.2   176  SER176     -0.2866
     77  CB       -21.5270   -3.2580  -23.5690 C.3   176  SER176      0.2089
     78  OG       -21.4380   -1.8910  -23.2000 O.3   176  SER176     -0.2183
     79  N        -18.3270   -1.5210  -28.6460 N.3   190  VAL190     -0.1231
     80  CA       -19.0620   -0.6230  -27.7130 C.3   190  VAL190      0.1692
     81  C        -18.4590   -0.8130  -26.3050 C.2   190  VAL190      0.2593
     82  O        -18.4050   -1.9470  -25.8080 O.2   190  VAL190     -0.2718
     83  CB       -20.5840   -0.8980  -27.6970 C.3   190  VAL190      0.0266
     84  CG1      -21.2950   -0.0350  -26.6410 C.3   190  VAL190      0.0020
     85  CG2      -21.2190   -0.7110  -29.0890 C.3   190  VAL190      0.0020
     86  N        -17.9900    0.2720  -25.6720 N.am  191  SER191     -0.1938
     87  CA       -17.3700    0.1600  -24.3490 C.3   191  SER191      0.2055
     88  C        -18.0890    1.0340  -23.3180 C.2   191  SER191      0.2643
     89  O        -18.6670    0.5120  -22.3590 O.2   191  SER191     -0.2714
     90  CB       -15.8570    0.4350  -24.4270 C.3   191  SER191      0.2130
     91  OG       -15.2040    0.3270  -23.1660 O.3   191  SER191     -0.2179
     92  N        -18.0630    2.3630  -23.5030 N.am  192  TRP192     -0.1959
     93  CA       -18.6680    3.2760  -22.5190 C.3   192  TRP192      0.1771
     94  C        -18.9900    4.6130  -23.1650 C.2   192  TRP192      0.2620
     95  O        -18.8020    4.7640  -24.3640 O.2   192  TRP192     -0.2715
     96  CB       -17.7330    3.4560  -21.3030 C.3   192  TRP192      0.0590
     97  CG       -16.3910    4.0500  -21.5970 C.ar  192  TRP192      0.0006
     98  CD1      -15.3090    3.4050  -22.1160 C.ar  192  TRP192      0.0946
     99  CD2      -15.9620    5.3950  -21.3160 C.ar  192  TRP192      0.0152
    100  NE1      -14.2270    4.2620  -22.1770 N.ar  192  TRP192     -0.2442
    101  CE2      -14.6050    5.4930  -21.7040 C.ar  192  TRP192      0.0810
    102  CE3      -16.6070    6.5420  -20.7990 C.ar  192  TRP192      0.0012
    103  CZ2      -13.8890    6.6970  -21.6380 C.ar  192  TRP192      0.0191
    104  CZ3      -15.8750    7.7250  -20.6880 C.ar  192  TRP192      0.0001
    105  CH2      -14.5440    7.7980  -21.1160 C.ar  192  TRP192      0.0015
    106  N        -19.4530    5.5670  -22.3840 N.am  193  GLY193     -0.1940
    107  CA       -19.7970    6.8710  -22.9410 C.3   193  GLY193      0.2014
    108  C        -20.7690    7.6310  -22.0690 C.2   193  GLY193      0.2639
    109  O        -20.8320    7.4150  -20.8580 O.2   193  GLY193     -0.2714
    110  N        -21.5440    8.5130  -22.7010 N.am  194  ASN194     -0.1958
    111  CA       -22.5130    9.3780  -22.0360 C.3   194  ASN194      0.1819
    112  C        -23.6720    8.6150  -21.4090 C.2   194  ASN194      0.2621
    113  O        -24.2340    7.7020  -22.0200 O.2   194  ASN194     -0.2715
    114  CB       -23.0510   10.4150  -23.0570 C.3   194  ASN194      0.1195
    115  CG       -23.6470   11.6540  -22.4230 C.2   194  ASN194      0.2630
    116  OD1      -23.2580   12.0530  -21.3210 O.2   194  ASN194     -0.2716
    117  ND2      -24.5830   12.3010  -23.1250 N.am  194  ASN194     -0.0877
    118  N        -24.0180    8.9830  -20.1770 N.am  195  ILE195     -0.1977
    119  CA       -25.1630    8.4410  -19.4590 C.3   195  ILE195      0.1596
    120  C        -25.9930    9.6680  -18.9760 C.2   195  ILE195      0.2287
    121  O        -25.4550   10.4560  -18.2050 O.2   195  ILE195     -0.2864
    122  CB       -24.8020    7.4910  -18.2830 C.3   195  ILE195      0.0276
    123  CG1      -24.0050    6.2460  -18.7810 C.3   195  ILE195      0.0022
    124  CG2      -26.1060    7.0720  -17.5470 C.3   195  ILE195      0.0022
    125  CD1      -23.3990    5.3540  -17.6790 C.3   195  ILE195      0.0001
    126  N        -27.6020    7.9870  -22.5600 N.3   197  CYS197     -0.1235
    127  CA       -26.9730    7.8200  -23.8880 C.3   197  CYS197      0.1677
    128  C        -27.4190    8.8940  -24.8870 C.2   197  CYS197      0.2270
    129  O        -28.5510    9.3510  -24.8340 O.2   197  CYS197     -0.2867
    130  CB       -27.1830    6.4000  -24.4060 C.3   197  CYS197      0.0956
    131  SG       -26.6120    5.1250  -23.2390 S.3   197  CYS197     -0.0801
    132  N        -19.7100    8.5280  -28.1190 N.3   204  GLY204     -0.1210
    133  CA       -19.5510    7.1850  -27.6020 C.3   204  GLY204      0.1956
    134  C        -18.0900    6.7820  -27.6090 C.2   204  GLY204      0.2611
    135  O        -17.3260    7.1670  -28.5150 O.2   204  GLY204     -0.2717
    136  N        -17.6790    5.9810  -26.5960 N.am  205  VAL205     -0.1979
    137  CA       -16.3040    5.5090  -26.5170 C.3   205  VAL205      0.1595
    138  C        -16.2470    4.0390  -26.8430 C.2   205  VAL205      0.2287
    139  O        -17.0270    3.2530  -26.3070 O.2   205  VAL205     -0.2864
    140  CB       -15.5730    5.8650  -25.1930 C.3   205  VAL205      0.0276
    141  CG1      -14.0840    5.5480  -25.3200 C.3   205  VAL205      0.0022
    142  CG2      -15.7490    7.3580  -24.8610 C.3   205  VAL205      0.0022
@<TRIPOS>BOND
     1    40    41    1
     2    41    42    1
     3    41    44    1
     4    42    43    2
     5    42    48   am
     6    85    83    1
     7    48    49    1
     8    79    80    1
     9    52    49    1
    10    52    53    1
    11    44    45    1
    12   135   134    2
    13    49    50    1
    14    46    45   ar
    15   132   133    1
    16    80    83    1
    17    80    81    1
    18    45    47   ar
    19    83    84    1
    20   134   133    1
    21   134   136   am
    22    50    51    2
    23    50    54   am
    24   138   137    1
    25   138   139    2
    26   136   137    1
    27   137   140    1
    28    81    82    2
    29    81    86   am
    30    54    55    1
    31    12    11    2
    32    72    71    2
    33    76    75    2
    34    11    10    1
    35    86    87    1
    36    75    74    1
    37    73    74    1
    38   141   140    1
    39   140   142    1
    40    71    70    1
    41    74    77    1
    42   128   129    2
    43   128   127    1
    44    55    58    1
    45    55    56    1
    46    58    59    1
    47    57    56    2
    48    90    87    1
    49    90    91    1
    50   130   127    1
    51   130   131    1
    52    95    94    2
    53    87    88    1
    54    10    13    1
    55    10     9    1
    56    56    60   am
    57   127   126    1
    58    13    14    1
    59    70    69    1
    60    77    78    1
    61    92    88   am
    62    92    93    1
    63    59   131    1
    64     9     3   am
    65    63    62    2
    66    88    89    2
    67    94    93    1
    68    94   106   am
    69   117   115   am
    70   114   115    1
    71   114   111    1
    72    69    62   am
    73   107   106    1
    74   107   108    1
    75    62    61    1
    76    60    61    1
    77   110   108   am
    78   110   111    1
    79    30    14    1
    80    30    29    1
    81    93    96    1
    82   115   116    2
    83     3     4    2
    84     3     2    1
    85   100    98   ar
    86   100   101   ar
    87    98    97   ar
    88    61    64    1
    89     1     2    1
    90   108   109    2
    91   111   112    1
    92   113   112    2
    93    29    26    1
    94   101   103   ar
    95   101    99   ar
    96   103   105   ar
    97    97    99   ar
    98    97    96    1
    99   112   118   am
   100    23    21   ar
   101    23    24   ar
   102     2     5    1
   103    99   102   ar
   104   105   104   ar
   105   102   104   ar
   106    21    20   ar
   107    24    22   ar
   108    64    65    1
   109     5     6    1
   110    26    25    1
   111    26    27    1
   112   118   119    1
   113    25    17   am
   114     6     8    1
   115     6     7    1
   116    15    16    1
   117    65    66    1
   118    28    27    2
   119    20    22   ar
   120    20    19    1
   121   119   120    1
   122   119   122    1
   123    17    16    1
   124    17    18    2
   125   120   121    2
   126    16    19    1
   127   123   122    1
   128   123   125    1
   129    66    67    2
   130    66    68   am
   131   122   124    1
   132    31    32    1
   133    34    33    2
   134    35    32    1
   135    35    36    1
   136    32    33    1
   137    36    37    1
   138    37    38    1
   139    38    39    1
