@<TRIPOS>MOLECULE
tmp/6qidA08.pdb
 85 83 0 0 0
SMALL
GASTEIGER

@<TRIPOS>ATOM
      1  N        -18.2030  236.1430   26.2200 N.3   226  ALA226     -0.1231
      2  CA       -17.7410  235.5000   27.4370 C.3   226  ALA226      0.1694
      3  C        -18.9200  235.0320   28.2830 C.2   226  ALA226      0.2591
      4  O        -20.0230  235.5780   28.2240 O.2   226  ALA226     -0.2718
      5  CB       -16.8590  236.4540   28.2390 C.3   226  ALA226      0.0304
      6  N        -18.6680  233.9960   29.0760 N.am  227  GLU227     -0.1979
      7  CA       -19.7060  233.3350   29.8570 C.3   227  GLU227      0.1602
      8  C        -19.0700  232.8560   31.1500 C.2   227  GLU227      0.2287
      9  O        -18.0660  232.1440   31.1120 O.2   227  GLU227     -0.2864
     10  CB       -20.3090  232.1700   29.0690 C.3   227  GLU227      0.0415
     11  CG       -21.5390  231.5410   29.6720 C.3   227  GLU227      0.1163
     12  CD       -22.1760  230.5220   28.7450 C.2   227  GLU227      0.3649
     13  OE1      -21.7840  230.4620   27.5650 O.co2 227  GLU227     -0.2457
     14  OE2      -23.0670  229.7790   29.1980 O.co2 227  GLU227     -0.2457
     15  N        -13.2920  224.5150   28.4100 N.3   340  PRO340     -0.2102
     16  CA       -13.6580  225.7130   29.1810 C.3   340  PRO340      0.1504
     17  C        -12.4800  226.6080   29.5290 C.2   340  PRO340      0.2576
     18  O        -12.7000  227.7680   29.8890 O.2   340  PRO340     -0.2718
     19  CB       -14.2910  225.1340   30.4520 C.3   340  PRO340      0.0282
     20  CG       -14.6390  223.7440   30.1160 C.3   340  PRO340      0.0208
     21  CD       -13.6620  223.2810   29.1030 C.3   340  PRO340      0.0893
     22  N        -11.2520  226.1070   29.4500 N.am  341  GLY341     -0.1943
     23  CA       -10.0800  226.9330   29.6360 C.3   341  GLY341      0.2014
     24  C         -9.6090  227.1010   31.0590 C.2   341  GLY341      0.2638
     25  O         -8.8970  228.0650   31.3440 O.2   341  GLY341     -0.2714
     26  N         -9.9650  226.1920   31.9590 N.am  342  PHE342     -0.1973
     27  CA        -9.6140  226.3180   33.3640 C.3   342  PHE342      0.1639
     28  C         -8.9770  225.0320   33.8700 C.2   342  PHE342      0.2290
     29  O         -9.2640  223.9410   33.3770 O.2   342  PHE342     -0.2864
     30  CB       -10.8390  226.6580   34.2180 C.3   342  PHE342      0.0560
     31  CG       -11.4000  228.0260   33.9560 C.ar  342  PHE342     -0.0200
     32  CD1      -10.7640  229.1530   34.4440 C.ar  342  PHE342     -0.0042
     33  CD2      -12.5630  228.1840   33.2240 C.ar  342  PHE342     -0.0042
     34  CE1      -11.2750  230.4120   34.2040 C.ar  342  PHE342     -0.0003
     35  CE2      -13.0790  229.4400   32.9800 C.ar  342  PHE342     -0.0003
     36  CZ       -12.4340  230.5550   33.4710 C.ar  342  PHE342     -0.0000
     37  N         -7.0370  230.2600   34.7980 N.3   361  PRO361     -0.2116
     38  CA        -7.0560  230.0790   33.3440 C.3   361  PRO361      0.1372
     39  C         -5.8200  229.3440   32.8500 C.2   361  PRO361      0.2244
     40  O         -4.7300  229.4720   33.4060 O.2   361  PRO361     -0.2868
     41  CB        -7.0960  231.5130   32.8070 C.3   361  PRO361      0.0268
     42  CG        -7.5800  232.3290   33.9290 C.3   361  PRO361      0.0207
     43  CD        -7.0770  231.6870   35.1600 C.3   361  PRO361      0.0892
     44  N        -14.5890  227.4280   25.0330 N.3   385  LEU385     -0.1231
     45  CA       -15.6980  228.1690   25.6300 C.3   385  LEU385      0.1693
     46  C        -15.2620  229.5560   26.0980 C.2   385  LEU385      0.2592
     47  O        -15.4820  229.9650   27.2330 O.2   385  LEU385     -0.2718
     48  CB       -16.3050  227.3610   26.7670 C.3   385  LEU385      0.0284
     49  CG       -16.7130  225.9210   26.4480 C.3   385  LEU385      0.0019
     50  CD1      -17.4700  225.3420   27.6060 C.3   385  LEU385      0.0001
     51  CD2      -17.5450  225.8210   25.1800 C.3   385  LEU385      0.0001
     52  N        -14.6330  230.2810   25.1790 N.am  386  TYR386     -0.1976
     53  CA       -14.1360  231.6310   25.3840 C.3   386  TYR386      0.1639
     54  C        -13.9170  232.2370   24.0080 C.2   386  TYR386      0.2290
     55  O        -13.8290  231.5220   23.0070 O.2   386  TYR386     -0.2864
     56  CB       -12.8470  231.6590   26.2190 C.3   386  TYR386      0.0560
     57  CG       -11.8260  230.5870   25.8980 C.ar  386  TYR386     -0.0198
     58  CD1      -11.8430  229.3580   26.5510 C.ar  386  TYR386     -0.0009
     59  CD2      -10.8280  230.8130   24.9650 C.ar  386  TYR386     -0.0009
     60  CE1      -10.9100  228.3840   26.2630 C.ar  386  TYR386      0.0417
     61  CE2       -9.8900  229.8460   24.6770 C.ar  386  TYR386      0.0417
     62  CZ        -9.9350  228.6360   25.3290 C.ar  386  TYR386      0.1957
     63  OH        -9.0040  227.6750   25.0370 O.3   386  TYR386     -0.2866
     64  N        -10.0860  236.5400   23.5420 N.3   390  ALA390     -0.1245
     65  CA        -9.6330  236.1240   24.8650 C.3   390  ALA390      0.1562
     66  C         -8.5090  235.1090   24.7630 C.2   390  ALA390      0.2260
     67  O         -7.6250  235.0650   25.6230 O.2   390  ALA390     -0.2867
     68  CB       -10.7920  235.5460   25.6720 C.3   390  ALA390      0.0290
     69  N         -5.7920  237.2830   26.3950 N.3   394  GLU394     -0.1231
     70  CA        -5.9250  237.0480   27.8250 C.3   394  GLU394      0.1699
     71  C         -5.2220  235.7950   28.3240 C.2   394  GLU394      0.2592
     72  O         -4.9370  235.7090   29.5200 O.2   394  GLU394     -0.2718
     73  CB        -7.4060  236.9760   28.2200 C.3   394  GLU394      0.0402
     74  CG        -8.1130  238.3150   28.1930 C.3   394  GLU394      0.1161
     75  CD        -9.5810  238.2050   28.5410 C.2   394  GLU394      0.3649
     76  OE1      -10.4170  238.2610   27.6190 O.co2 394  GLU394     -0.2457
     77  OE2       -9.8940  238.0570   29.7380 O.co2 394  GLU394     -0.2457
     78  N         -4.9350  234.8340   27.4570 N.am  395  LEU395     -0.1980
     79  CA        -4.2330  233.6290   27.8690 C.3   395  LEU395      0.1596
     80  C         -2.7330  233.8240   27.6970 C.2   395  LEU395      0.2287
     81  O         -2.2790  234.3110   26.6580 O.2   395  LEU395     -0.2864
     82  CB        -4.7080  232.4170   27.0690 C.3   395  LEU395      0.0297
     83  CG        -6.1820  232.0300   27.1780 C.3   395  LEU395      0.0022
     84  CD1       -6.4210  230.6780   26.5530 C.3   395  LEU395      0.0001
     85  CD2       -6.6460  232.0380   28.6150 C.3   395  LEU395      0.0001
@<TRIPOS>BOND
     1    55    54    2
     2    64    65    1
     3    54    53    1
     4    61    59   ar
     5    61    62   ar
     6    66    65    1
     7    66    67    2
     8    65    68    1
     9    59    57   ar
    10    44    45    1
    11    63    62    1
    12    52    53    1
    13    52    46   am
    14    51    49    1
    15    62    60   ar
    16    53    56    1
    17    45    46    1
    18    45    48    1
    19    57    56    1
    20    57    58   ar
    21    46    47    2
    22     1     2    1
    23    60    58   ar
    24    69    70    1
    25    49    48    1
    26    49    50    1
    27    84    83    1
    28    81    80    2
    29    82    83    1
    30    82    79    1
    31    83    85    1
    32     2     5    1
    33     2     3    1
    34    78    79    1
    35    78    71   am
    36    13    12   ar
    37    76    75   ar
    38    80    79    1
    39    70    73    1
    40    70    71    1
    41    74    73    1
    42    74    75    1
    43     4     3    2
    44     3     6   am
    45    71    72    2
    46    15    21    1
    47    15    16    1
    48    75    77   ar
    49    12    14   ar
    50    12    11    1
    51    10    11    1
    52    10     7    1
    53     6     7    1
    54    21    20    1
    55    16    17    1
    56    16    19    1
    57    22    17   am
    58    22    23    1
    59    17    18    2
    60    23    24    1
    61     7     8    1
    62    20    19    1
    63    24    25    2
    64    24    26   am
    65     9     8    2
    66    26    27    1
    67    41    38    1
    68    41    42    1
    69    39    38    1
    70    39    40    2
    71    35    33   ar
    72    35    36   ar
    73    33    31   ar
    74    38    37    1
    75    27    28    1
    76    27    30    1
    77    29    28    2
    78    36    34   ar
    79    42    43    1
    80    31    30    1
    81    31    32   ar
    82    34    32   ar
    83    37    43    1
