@<TRIPOS>MOLECULE
tmp/6qidA01.pdb
 105 97 0 0 0
SMALL
GASTEIGER

@<TRIPOS>ATOM
      1  N          3.6630  229.8300   53.9870 N.3   353  ARG353     -0.1245
      2  CA         4.4380  228.6890   53.4810 C.3   353  ARG353      0.1563
      3  C          3.5280  227.5140   53.1210 C.2   353  ARG353      0.2260
      4  O          3.7960  226.3660   53.4700 O.2   353  ARG353     -0.2867
      5  CB         5.5380  228.2780   54.4660 C.3   353  ARG353      0.0307
      6  CG         6.4680  229.4240   54.8370 C.3   353  ARG353      0.0489
      7  CD         7.0710  229.2760   56.2240 C.3   353  ARG353      0.2205
      8  NE         6.0750  228.9760   57.2440 N.pl3 353  ARG353     -0.0865
      9  CZ         5.3420  229.8840   57.8740 C.cat 353  ARG353      0.5346
     10  NH1        5.4820  231.1680   57.5980 N.pl3 353  ARG353      0.1354
     11  NH2        4.4650  229.5020   58.7860 N.pl3 353  ARG353      0.1354
     12  N         17.7880  232.7250   50.7820 N.3   439  ARG439     -0.1245
     13  CA        16.8400  232.7340   51.8900 C.3   439  ARG439      0.1563
     14  C         16.4480  231.3180   52.3010 C.2   439  ARG439      0.2260
     15  O         16.3390  231.0210   53.4940 O.2   439  ARG439     -0.2867
     16  CB        15.6020  233.5420   51.5030 C.3   439  ARG439      0.0307
     17  CG        14.6540  233.8240   52.6370 C.3   439  ARG439      0.0489
     18  CD        13.7390  234.9970   52.3160 C.3   439  ARG439      0.2205
     19  NE        12.7500  234.6660   51.2940 N.pl3 439  ARG439     -0.0865
     20  CZ        12.6100  235.3220   50.1490 C.cat 439  ARG439      0.5346
     21  NH1       13.3910  236.3550   49.8750 N.pl3 439  ARG439      0.1354
     22  NH2       11.6860  234.9500   49.2800 N.pl3 439  ARG439      0.1354
     23  N         17.3750  229.5570   55.9450 N.3   443  GLU443     -0.1245
     24  CA        16.3690  228.9970   56.8400 C.3   443  GLU443      0.1567
     25  C         16.6400  227.5300   57.1360 C.2   443  GLU443      0.2260
     26  O         16.4910  227.0870   58.2770 O.2   443  GLU443     -0.2867
     27  CB        14.9750  229.1680   56.2390 C.3   443  GLU443      0.0388
     28  CG        14.4880  230.5950   56.2190 C.3   443  GLU443      0.1160
     29  CD        13.3360  230.8180   55.2630 C.2   443  GLU443      0.3649
     30  OE1       12.7060  229.8320   54.8360 O.co2 443  GLU443     -0.2457
     31  OE2       13.0640  231.9870   54.9340 O.co2 443  GLU443     -0.2457
     32  N         17.4470  225.8830   60.7720 N.3   447  LEU447     -0.1245
     33  CA        16.6140  224.7700   61.2090 C.3   447  LEU447      0.1561
     34  C         17.3950  223.4760   61.3870 C.2   447  LEU447      0.2260
     35  O         16.7720  222.4380   61.6230 O.2   447  LEU447     -0.2867
     36  CB        15.4710  224.5340   60.2150 C.3   447  LEU447      0.0270
     37  CG        14.3140  225.5360   60.1450 C.3   447  LEU447      0.0019
     38  CD1       13.4880  225.2970   58.8960 C.3   447  LEU447      0.0001
     39  CD2       13.4440  225.5000   61.3860 C.3   447  LEU447      0.0001
     40  N          6.2620  221.9890   54.6120 N.3   469  ASP469     -0.1239
     41  CA         7.2700  223.0060   54.8280 C.3   469  ASP469      0.1674
     42  C          8.2350  222.5210   55.9090 C.2   469  ASP469      0.2266
     43  O          7.7840  222.0020   56.9380 O.2   469  ASP469     -0.2867
     44  CB         6.6020  224.3160   55.2410 C.3   469  ASP469      0.1410
     45  CG         7.5920  225.4120   55.5300 C.2   469  ASP469      0.3668
     46  OD1        8.3420  225.7950   54.6170 O.co2 469  ASP469     -0.2456
     47  OD2        7.6120  225.8980   56.6720 O.co2 469  ASP469     -0.2456
     48  N         10.0680  223.6400   58.2870 N.3   471  ALA471     -0.1245
     49  CA         9.9120  224.0730   59.6700 C.3   471  ALA471      0.1562
     50  C          8.7990  223.2980   60.3690 C.2   471  ALA471      0.2260
     51  O          8.9090  222.9840   61.5570 O.2   471  ALA471     -0.2867
     52  CB         9.6480  225.5740   59.7290 C.3   471  ALA471      0.0290
     53  N          9.8590  224.4540   65.6420 N.3   601  GLY601     -0.1210
     54  CA         9.7380  224.7940   64.2460 C.3   601  GLY601      0.1956
     55  C          9.8140  226.2800   63.9760 C.2   601  GLY601      0.2611
     56  O         10.2900  226.6930   62.9180 O.2   601  GLY601     -0.2717
     57  N          9.3650  227.0980   64.9270 N.am  602  PHE602     -0.1976
     58  CA         9.1180  228.5100   64.6650 C.3   602  PHE602      0.1639
     59  C          9.8770  229.4450   65.6040 C.2   602  PHE602      0.2290
     60  O          9.3660  230.5140   65.9450 O.2   602  PHE602     -0.2864
     61  CB         7.6190  228.7890   64.7250 C.3   602  PHE602      0.0560
     62  CG         6.8530  228.1560   63.6100 C.ar  602  PHE602     -0.0200
     63  CD1        6.8530  228.7240   62.3520 C.ar  602  PHE602     -0.0042
     64  CD2        6.1560  226.9800   63.8100 C.ar  602  PHE602     -0.0042
     65  CE1        6.1600  228.1410   61.3190 C.ar  602  PHE602     -0.0003
     66  CE2        5.4610  226.3960   62.7790 C.ar  602  PHE602     -0.0003
     67  CZ         5.4630  226.9800   61.5330 C.ar  602  PHE602     -0.0000
     68  N         12.3380  231.2390   64.7870 N.3   604  MET604     -0.1230
     69  CA        12.7000  232.4190   64.0210 C.3   604  MET604      0.1702
     70  C         11.5200  233.3320   63.7270 C.2   604  MET604      0.2592
     71  O         11.7260  234.4180   63.1800 O.2   604  MET604     -0.2718
     72  CB        13.3590  232.0140   62.7070 C.3   604  MET604      0.0401
     73  CG        14.7260  231.4200   62.8780 C.3   604  MET604      0.0596
     74  SD        15.5320  231.2060   61.3020 S.3   604  MET604     -0.1393
     75  CE        14.7410  229.7150   60.7410 C.3   604  MET604      0.0692
     76  N         10.3010  232.9270   64.0650 N.am  605  GLN605     -0.1979
     77  CA         9.1400  233.8050   63.9670 C.3   605  GLN605      0.1601
     78  C          8.6630  234.0780   65.3890 C.2   605  GLN605      0.2287
     79  O          7.7130  233.4750   65.8840 O.2   605  GLN605     -0.2864
     80  CB         8.0490  233.1930   63.1080 C.3   605  GLN605      0.0394
     81  CG         8.4790  232.8480   61.7070 C.3   605  GLN605      0.0908
     82  CD         7.3170  232.7130   60.7430 C.2   605  GLN605      0.2608
     83  OE1        7.3440  233.2620   59.6440 O.2   605  GLN605     -0.2717
     84  NE2        6.2950  231.9790   61.1470 N.am  605  GLN605     -0.0878
     85  N         13.3210  238.2520   63.5350 N.3   621  LYS621     -0.1245
     86  CA        13.8310  238.2650   62.1690 C.3   621  LYS621      0.1561
     87  C         13.5530  239.6290   61.5510 C.2   621  LYS621      0.2260
     88  O         12.3960  240.0440   61.4450 O.2   621  LYS621     -0.2867
     89  CB        13.1970  237.1500   61.3420 C.3   621  LYS621      0.0271
     90  CG        13.6280  237.1110   59.9070 C.3   621  LYS621      0.0035
     91  CD        14.9840  236.5120   59.8240 C.3   621  LYS621      0.0206
     92  CE        15.2080  235.7660   58.5240 C.3   621  LYS621      0.1093
     93  NZ        16.4980  234.9790   58.5980 N.3   621  LYS621     -0.1314
     94  N          4.6090  233.3970   66.1860 N.3   643  TYR643     -0.1241
     95  CA         3.6030  233.6510   65.1650 C.3   643  TYR643      0.1605
     96  C          3.8500  232.7710   63.9490 C.2   643  TYR643      0.2264
     97  O          4.9570  232.2920   63.7120 O.2   643  TYR643     -0.2867
     98  CB         3.5580  235.1320   64.7500 C.3   643  TYR643      0.0534
     99  CG         4.8320  235.6880   64.1520 C.ar  643  TYR643     -0.0201
    100  CD1        5.8010  236.2640   64.9570 C.ar  643  TYR643     -0.0009
    101  CD2        5.0520  235.6630   62.7780 C.ar  643  TYR643     -0.0009
    102  CE1        6.9500  236.7870   64.4190 C.ar  643  TYR643      0.0417
    103  CE2        6.2050  236.1740   62.2350 C.ar  643  TYR643      0.0417
    104  CZ         7.1520  236.7320   63.0600 C.ar  643  TYR643      0.1957
    105  OH         8.3000  237.2460   62.5280 O.3   643  TYR643     -0.2866
@<TRIPOS>BOND
     1    22    20    1
     2    21    20    1
     3    20    19    2
     4    12    13    1
     5    19    18    1
     6    16    13    1
     7    16    17    1
     8    13    14    1
     9    14    15    2
    10    18    17    1
    11     3     4    2
    12     3     2    1
    13     2     1    1
    14     2     5    1
    15     5     6    1
    16    40    41    1
    17    46    45   ar
    18    41    44    1
    19    41    42    1
    20    30    29   ar
    21     6     7    1
    22    31    29   ar
    23    44    45    1
    24    29    28    1
    25    45    47   ar
    26    42    43    2
    27    23    24    1
    28    28    27    1
    29     7     8    1
    30    27    24    1
    31    24    25    1
    32    25    26    2
    33     8     9    2
    34    10     9    1
    35     9    11    1
    36    48    49    1
    37    92    93    1
    38    92    91    1
    39    38    37    1
    40    83    82    2
    41    49    52    1
    42    49    50    1
    43    91    90    1
    44    90    89    1
    45    37    36    1
    46    37    39    1
    47    36    33    1
    48    50    51    2
    49    75    74    1
    50    82    84   am
    51    82    81    1
    52    32    33    1
    53    33    34    1
    54    74    73    1
    55    65    67   ar
    56    65    63   ar
    57    89    86    1
    58    34    35    2
    59    88    87    2
    60    67    66   ar
    61    87    86    1
    62    81    80    1
    63    86    85    1
    64   103   101   ar
    65   103   104   ar
    66    63    62   ar
    67   105   104    1
    68    72    73    1
    69    72    69    1
    70   101    99   ar
    71    66    64   ar
    72    56    55    2
    73   104   102   ar
    74    80    77    1
    75    71    70    2
    76    62    64   ar
    77    62    61    1
    78    97    96    2
    79    70    69    1
    80    70    76   am
    81    96    95    1
    82    77    76    1
    83    77    78    1
    84    55    54    1
    85    55    57   am
    86    69    68    1
    87    99    98    1
    88    99   100   ar
    89    54    53    1
    90   102   100   ar
    91    58    61    1
    92    58    57    1
    93    58    59    1
    94    98    95    1
    95    95    94    1
    96    78    79    2
    97    59    60    2
