@<TRIPOS>MOLECULE
tmp/6qidA04.pdb
 124 116 0 0 0
SMALL
GASTEIGER

@<TRIPOS>ATOM
      1  N          1.9930  212.0230   32.9420 N.3    93  ARG93      -0.1245
      2  CA         0.9800  211.3220   33.7120 C.3    93  ARG93       0.1563
      3  C          1.1840  209.8180   33.6270 C.2    93  ARG93       0.2260
      4  O          1.7320  209.3020   32.6500 O.2    93  ARG93      -0.2867
      5  CB        -0.4320  211.6680   33.2320 C.3    93  ARG93       0.0307
      6  CG        -0.7490  213.1400   33.2190 C.3    93  ARG93       0.0489
      7  CD        -0.4880  213.7850   34.5610 C.3    93  ARG93       0.2205
      8  NE        -0.7380  215.2170   34.5010 N.pl3  93  ARG93      -0.0865
      9  CZ        -1.6770  215.8400   35.2010 C.cat  93  ARG93       0.5346
     10  NH1       -2.4500  215.1610   36.0340 N.pl3  93  ARG93       0.1354
     11  NH2       -1.8340  217.1450   35.0730 N.pl3  93  ARG93       0.1354
     12  N          5.6780  221.5940   29.7860 N.3   163  GLU163     -0.1231
     13  CA         4.8370  221.6900   30.9690 C.3   163  GLU163      0.1699
     14  C          5.5430  222.3540   32.1400 C.2   163  GLU163      0.2592
     15  O          4.8670  222.9750   32.9570 O.2   163  GLU163     -0.2718
     16  CB         4.3260  220.3080   31.3740 C.3   163  GLU163      0.0402
     17  CG         3.1280  219.8560   30.5580 C.3   163  GLU163      0.1161
     18  CD         2.1930  218.9410   31.3150 C.2   163  GLU163      0.3649
     19  OE1        2.5480  218.4930   32.4180 O.co2 163  GLU163     -0.2457
     20  OE2        1.0960  218.6690   30.7970 O.co2 163  GLU163     -0.2457
     21  N          6.8750  222.2660   32.2050 N.am  164  ARG164     -0.1966
     22  CA         7.7030  222.9590   33.1990 C.3   164  ARG164      0.1729
     23  C          7.2930  222.6070   34.6270 C.2   164  ARG164      0.2616
     24  O          7.2250  223.4670   35.5040 O.2   164  ARG164     -0.2715
     25  CB         7.6960  224.4760   32.9900 C.3   164  ARG164      0.0348
     26  CG         8.0770  224.9240   31.5950 C.3   164  ARG164      0.0492
     27  CD         9.4990  224.5480   31.2440 C.3   164  ARG164      0.2205
     28  NE        10.4410  224.9310   32.2840 N.pl3 164  ARG164     -0.0865
     29  CZ        10.9650  226.1420   32.4090 C.cat 164  ARG164      0.5346
     30  NH1       10.6490  227.0990   31.5520 N.pl3 164  ARG164      0.1354
     31  NH2       11.8120  226.3950   33.3890 N.pl3 164  ARG164      0.1354
     32  N          6.9930  221.3350   34.8510 N.am  165  THR165     -0.1951
     33  CA         6.7530  220.8750   36.2020 C.3   165  THR165      0.1897
     34  C          8.0580  220.8520   36.9860 C.2   165  THR165      0.2313
     35  O          9.1520  221.0110   36.4350 O.2   165  THR165     -0.2863
     36  CB         6.1240  219.4840   36.2100 C.3   165  THR165      0.1794
     37  OG1        7.0650  218.5320   35.7100 O.3   165  THR165     -0.2208
     38  CG2        4.8720  219.4570   35.3590 C.3   165  THR165      0.0378
     39  N         -6.7650  217.8830   33.4680 N.3   323  ASN323     -0.1240
     40  CA        -5.6300  217.9370   32.5440 C.3   323  ASN323      0.1653
     41  C         -4.6960  216.6910   32.6290 C.2   323  ASN323      0.2266
     42  O         -3.6230  216.7270   32.0380 O.2   323  ASN323     -0.2867
     43  CB        -4.8070  219.2100   32.7550 C.3   323  ASN323      0.1155
     44  CG        -4.4720  219.4710   34.2090 C.2   323  ASN323      0.2627
     45  OD1       -4.4950  218.5750   35.0420 O.2   323  ASN323     -0.2716
     46  ND2       -4.1470  220.7140   34.5130 N.am  323  ASN323     -0.0877
     47  N         -4.8580  216.0410   29.2070 N.3   326  GLU326     -0.1245
     48  CA        -4.4840  217.2080   28.3660 C.3   326  GLU326      0.1567
     49  C         -3.4200  216.8510   27.3180 C.2   326  GLU326      0.2260
     50  O         -3.5300  217.3310   26.1930 O.2   326  GLU326     -0.2867
     51  CB        -4.0060  218.3730   29.2270 C.3   326  GLU326      0.0388
     52  CG        -3.5090  219.5350   28.4020 C.3   326  GLU326      0.1160
     53  CD        -3.3640  220.8310   29.1730 C.2   326  GLU326      0.3649
     54  OE1       -4.3840  221.4180   29.5270 O.co2 326  GLU326     -0.2457
     55  OE2       -2.2320  221.2280   29.4190 O.co2 326  GLU326     -0.2457
     56  N         -8.1110  225.1800   34.8680 N.3   343  SER343     -0.1202
     57  CA        -7.4980  224.0440   35.5370 C.3   343  SER343      0.2020
     58  C         -7.1020  224.4520   36.9460 C.2   343  SER343      0.2619
     59  O         -6.9290  225.6320   37.2490 O.2   343  SER343     -0.2717
     60  CB        -6.2720  223.5200   34.7800 C.3   343  SER343      0.2103
     61  OG        -5.2420  224.4830   34.7420 O.3   343  SER343     -0.2182
     62  N         -6.9550  223.4500   37.8020 N.am  344  LYS344     -0.1965
     63  CA        -6.4300  223.6510   39.1450 C.3   344  LYS344      0.1728
     64  C         -4.9110  223.7310   39.0640 C.2   344  LYS344      0.2616
     65  O         -4.2500  222.7480   38.7240 O.2   344  LYS344     -0.2715
     66  CB        -6.8720  222.5190   40.0640 C.3   344  LYS344      0.0311
     67  CG        -8.1850  222.7600   40.7570 C.3   344  LYS344      0.0038
     68  CD        -8.4520  221.6850   41.7790 C.3   344  LYS344      0.0206
     69  CE        -9.6140  222.0470   42.6700 C.3   344  LYS344      0.1093
     70  NZ        -9.9580  220.9440   43.5980 N.3   344  LYS344     -0.1314
     71  N         -4.3590  224.8980   39.3740 N.am  345  GLN345     -0.1977
     72  CA        -2.9270  225.1310   39.3130 C.3   345  GLN345      0.1601
     73  C         -2.3860  225.4590   40.6970 C.2   345  GLN345      0.2287
     74  O         -3.0680  226.0770   41.5180 O.2   345  GLN345     -0.2864
     75  CB        -2.5940  226.2580   38.3360 C.3   345  GLN345      0.0394
     76  CG        -2.8280  225.8910   36.8820 C.3   345  GLN345      0.0908
     77  CD        -2.8790  227.0970   35.9770 C.2   345  GLN345      0.2608
     78  OE1       -2.0100  227.9580   36.0270 O.2   345  GLN345     -0.2717
     79  NE2       -3.9090  227.1710   35.1540 N.am  345  GLN345     -0.0878
     80  N         -1.5540  224.9310   26.7170 N.3   366  SER366     -0.1217
     81  CA        -2.4900  223.9490   27.2490 C.3   366  SER366      0.1889
     82  C         -3.7370  223.8410   26.3800 C.2   366  SER366      0.2288
     83  O         -4.2680  222.7460   26.1800 O.2   366  SER366     -0.2866
     84  CB        -2.8620  224.3110   28.6860 C.3   366  SER366      0.2089
     85  OG        -1.8870  223.8550   29.5970 O.3   366  SER366     -0.2183
     86  N          2.4770  228.2620   30.8440 N.3   399  THR399     -0.1203
     87  CA         2.2260  228.3140   32.2740 C.3   399  THR399      0.1994
     88  C          3.5450  228.4890   33.0220 C.2   399  THR399      0.2617
     89  O          4.5730  227.9260   32.6400 O.2   399  THR399     -0.2717
     90  CB         1.4660  227.0540   32.7150 C.3   399  THR399      0.1784
     91  OG1        0.1090  227.1520   32.2720 O.3   399  THR399     -0.2211
     92  CG2        1.4520  226.8700   34.2210 C.3   399  THR399      0.0376
     93  N          3.5080  229.3680   34.0250 N.am  400  TYR400     -0.1975
     94  CA         4.6470  229.6720   34.8770 C.3   400  TYR400      0.1639
     95  C          5.2220  228.4000   35.4990 C.2   400  TYR400      0.2290
     96  O          4.4620  227.5070   35.8880 O.2   400  TYR400     -0.2864
     97  CB         4.2090  230.6410   35.9740 C.3   400  TYR400      0.0560
     98  CG         5.2830  231.5620   36.4760 C.ar  400  TYR400     -0.0198
     99  CD1        5.9760  232.3930   35.6100 C.ar  400  TYR400     -0.0009
    100  CD2        5.5940  231.6140   37.8230 C.ar  400  TYR400     -0.0009
    101  CE1        6.9600  233.2410   36.0750 C.ar  400  TYR400      0.0417
    102  CE2        6.5650  232.4630   38.2960 C.ar  400  TYR400      0.0417
    103  CZ         7.2500  233.2670   37.4230 C.ar  400  TYR400      0.1957
    104  OH         8.2240  234.1080   37.9050 O.3   400  TYR400     -0.2866
    105  N          6.6800  225.4800   37.8300 N.3   402  GLU402     -0.1245
    106  CA         6.2070  225.0600   39.1430 C.3   402  GLU402      0.1567
    107  C          7.2200  225.3770   40.2380 C.2   402  GLU402      0.2260
    108  O          6.8360  225.6570   41.3770 O.2   402  GLU402     -0.2867
    109  CB         5.8920  223.5640   39.1160 C.3   402  GLU402      0.0388
    110  CG         5.1280  223.0590   40.3170 C.3   402  GLU402      0.1160
    111  CD         4.9090  221.5640   40.2920 C.2   402  GLU402      0.3649
    112  OE1        5.3630  220.9010   39.3430 O.co2 402  GLU402     -0.2457
    113  OE2        4.2770  221.0520   41.2330 O.co2 402  GLU402     -0.2457
    114  N          6.5620  228.4150   41.8700 N.3   405  ARG405     -0.1245
    115  CA         5.2580  228.4040   42.5210 C.3   405  ARG405      0.1563
    116  C          5.2190  227.3710   43.6380 C.2   405  ARG405      0.2260
    117  O          4.1470  226.8910   44.0060 O.2   405  ARG405     -0.2867
    118  CB         4.1380  228.1170   41.5210 C.3   405  ARG405      0.0307
    119  CG         3.9830  229.1280   40.4120 C.3   405  ARG405      0.0489
    120  CD         2.8490  228.7460   39.4710 C.3   405  ARG405      0.2205
    121  NE         3.2280  227.7160   38.5110 N.pl3 405  ARG405     -0.0865
    122  CZ         2.6740  226.5110   38.4530 C.cat 405  ARG405      0.5346
    123  NH1        3.0780  225.6360   37.5490 N.pl3 405  ARG405      0.1354
    124  NH2        1.7170  226.1780   39.3010 N.pl3 405  ARG405      0.1354
@<TRIPOS>BOND
     1    83    82    2
     2    50    49    2
     3    82    81    1
     4    80    81    1
     5    81    84    1
     6    49    48    1
     7    48    47    1
     8    48    51    1
     9    52    53    1
    10    52    51    1
    11    84    85    1
    12    53    55   ar
    13    53    54   ar
    14    12    13    1
    15    17    18    1
    16    17    16    1
    17    20    18   ar
    18    86    87    1
    19    13    16    1
    20    13    14    1
    21    27    26    1
    22    27    28    1
    23    18    19   ar
    24    30    29    1
    25    26    25    1
    26    42    41    2
    27    14    21   am
    28    14    15    2
    29    21    22    1
    30    91    90    1
    31    87    90    1
    32    87    88    1
    33    28    29    2
    34    29    31    1
    35    40    41    1
    36    40    43    1
    37    40    39    1
    38    89    88    2
    39     4     3    2
    40    90    92    1
    41    43    44    1
    42     1     2    1
    43    25    22    1
    44    88    93   am
    45    22    23    1
    46     6     5    1
    47     6     7    1
    48     5     2    1
    49     3     2    1
    50    93    94    1
    51    44    46   am
    52    44    45    2
    53     8     7    1
    54     8     9    2
    55    23    32   am
    56    23    24    2
    57    61    60    1
    58    60    57    1
    59    32    33    1
    60    56    57    1
    61    94    95    1
    62    94    97    1
    63    11     9    1
    64    79    77   am
    65     9    10    1
    66    38    36    1
    67    95    96    2
    68    57    58    1
    69    99   101   ar
    70    99    98   ar
    71    37    36    1
    72    97    98    1
    73    77    78    2
    74    77    76    1
    75   101   103   ar
    76    33    36    1
    77    33    34    1
    78    35    34    2
    79    98   100   ar
    80    76    75    1
    81    58    59    2
    82    58    62   am
    83   103   104    1
    84   103   102   ar
    85   123   122    1
    86    62    63    1
    87   100   102   ar
    88   105   106    1
    89    75    72    1
    90   122   121    2
    91   122   124    1
    92   121   120    1
    93    65    64    2
    94    64    63    1
    95    64    71   am
    96   109   106    1
    97   109   110    1
    98   106   107    1
    99    63    66    1
   100    72    71    1
   101    72    73    1
   102   112   111   ar
   103   120   119    1
   104    66    67    1
   105   107   108    2
   106   111   110    1
   107   111   113   ar
   108   119   118    1
   109    73    74    2
   110    67    68    1
   111   118   115    1
   112    68    69    1
   113   114   115    1
   114   115   116    1
   115    69    70    1
   116   116   117    2
