@<TRIPOS>MOLECULE
tmp/6qjeD00.pdb
 104 99 0 0 0
SMALL
GASTEIGER

@<TRIPOS>ATOM
      1  N         24.6330   -4.2860  -24.9720 N.3    46  MET46      -0.1245
      2  CA        25.4910   -3.9390  -23.8490 C.3    46  MET46       0.1570
      3  C         24.7470   -4.2090  -22.5490 C.2    46  MET46       0.2261
      4  O         23.5270   -4.0620  -22.4860 O.2    46  MET46      -0.2867
      5  CB        25.9330   -2.4790  -23.9200 C.3    46  MET46       0.0387
      6  CG        24.8660   -1.4890  -23.4920 C.3    46  MET46       0.0595
      7  SD        25.5030    0.1910  -23.3950 S.3    46  MET46      -0.1393
      8  CE        24.2500    0.9530  -22.3790 C.3    46  MET46       0.0692
      9  N         32.2100   -3.3720  -18.3520 N.3   155  LYS155     -0.1231
     10  CA        32.0010   -1.9340  -18.1910 C.3   155  LYS155      0.1693
     11  C         32.7050   -1.1270  -19.2810 C.2   155  LYS155      0.2592
     12  O         33.8480   -1.4100  -19.6420 O.2   155  LYS155     -0.2718
     13  CB        32.4780   -1.4710  -16.8090 C.3   155  LYS155      0.0285
     14  CG        32.5990    0.0420  -16.6800 C.3   155  LYS155      0.0035
     15  CD        32.6260    0.4990  -15.2370 C.3   155  LYS155      0.0206
     16  CE        32.5630    2.0170  -15.1540 C.3   155  LYS155      0.1093
     17  NZ        32.5480    2.4990  -13.7410 N.3   155  LYS155     -0.1314
     18  N         32.0050   -0.1300  -19.8140 N.am  156  GLY156     -0.1957
     19  CA        32.5480    0.7170  -20.8630 C.3   156  GLY156      0.1869
     20  C         32.7470    0.0150  -22.1960 C.2   156  GLY156      0.2309
     21  O         33.5390    0.4600  -23.0210 O.2   156  GLY156     -0.2863
     22  N         33.8090    1.5870  -25.5640 N.3   173  LEU173     -0.1231
     23  CA        33.0130    2.7960  -25.7070 C.3   173  LEU173      0.1693
     24  C         33.8090    3.9470  -25.1060 C.2   173  LEU173      0.2593
     25  O         34.0490    3.9790  -23.9020 O.2   173  LEU173     -0.2718
     26  CB        31.6550    2.6300  -25.0280 C.3   173  LEU173      0.0284
     27  CG        30.7200    1.5910  -25.6530 C.3   173  LEU173      0.0019
     28  CD1       29.5530    1.2660  -24.7340 C.3   173  LEU173      0.0001
     29  CD2       30.2060    2.0770  -27.0010 C.3   173  LEU173      0.0001
     30  N         34.2280    4.8840  -25.9490 N.am  174  SER174     -0.1938
     31  CA        35.2850    5.8190  -25.5780 C.3   174  SER174      0.2055
     32  C         34.8610    7.2830  -25.4520 C.2   174  SER174      0.2643
     33  O         35.6250    8.1800  -25.8120 O.2   174  SER174     -0.2714
     34  CB        36.4200    5.7190  -26.5970 C.3   174  SER174      0.2130
     35  OG        35.9430    5.9860  -27.9070 O.3   174  SER174     -0.2179
     36  N         33.6630    7.5280  -24.9310 N.am  175  ASP175     -0.1957
     37  CA        33.1920    8.8950  -24.7230 C.3   175  ASP175      0.1825
     38  C         32.3200    8.9630  -23.4790 C.2   175  ASP175      0.2464
     39  O         31.1520    8.5740  -23.5150 O.2   175  ASP175     -0.2730
     40  CB        32.4190    9.3980  -25.9460 C.3   175  ASP175      0.1450
     41  CG        32.1370   10.8960  -25.8960 C.2   175  ASP175      0.3671
     42  OD1       31.8910   11.4380  -24.7960 O.co2 175  ASP175     -0.2456
     43  OD2       32.1550   11.5370  -26.9690 O.co2 175  ASP175     -0.2456
     44  N         32.8910    9.4650  -22.3700 N.am  176  PRO176     -0.2727
     45  CA        32.2320    9.5580  -21.0610 C.3   176  PRO176      0.1402
     46  C         30.9700   10.4180  -21.0640 C.2   176  PRO176      0.2269
     47  O         30.0730   10.1930  -20.2530 O.2   176  PRO176     -0.2865
     48  CB        33.3080   10.1940  -20.1730 C.3   176  PRO176      0.0296
     49  CG        34.5910    9.8680  -20.8350 C.3   176  PRO176      0.0237
     50  CD        34.2940    9.9080  -22.3070 C.3   176  PRO176      0.0939
     51  N         28.5900   10.5370  -23.1270 N.3   178  LEU178     -0.1231
     52  CA        27.4120    9.8750  -23.6730 C.3   178  LEU178      0.1693
     53  C         26.8150    8.8630  -22.7050 C.2   178  LEU178      0.2592
     54  O         27.4920    8.3710  -21.8000 O.2   178  LEU178     -0.2718
     55  CB        27.7520    9.1850  -24.9930 C.3   178  LEU178      0.0284
     56  CG        28.2850   10.1150  -26.0800 C.3   178  LEU178      0.0019
     57  CD1       28.4750    9.3630  -27.3890 C.3   178  LEU178      0.0001
     58  CD2       27.3520   11.3020  -26.2660 C.3   178  LEU178      0.0001
     59  N         25.5370    8.5640  -22.9060 N.am  179  ALA179     -0.1966
     60  CA        24.8510    7.5430  -22.1310 C.3   179  ALA179      0.1728
     61  C         23.6940    6.9580  -22.9360 C.2   179  ALA179      0.2616
     62  O         23.4190    7.3870  -24.0550 O.2   179  ALA179     -0.2715
     63  CB        24.3510    8.1140  -20.8220 C.3   179  ALA179      0.0334
     64  N         23.0190    5.9770  -22.3530 N.am  180  VAL180     -0.1977
     65  CA        21.8720    5.3580  -22.9880 C.3   180  VAL180      0.1596
     66  C         20.6130    5.5540  -22.1480 C.2   180  VAL180      0.2287
     67  O         20.5450    5.1270  -20.9970 O.2   180  VAL180     -0.2864
     68  CB        22.1190    3.8560  -23.2330 C.3   180  VAL180      0.0276
     69  CG1       20.8120    3.1240  -23.4470 C.3   180  VAL180      0.0022
     70  CG2       23.0400    3.6660  -24.4260 C.3   180  VAL180      0.0022
     71  N         29.8730    8.4700  -33.0350 N.3   260  TYR260     -0.1241
     72  CA        28.6690    8.0760  -32.3110 C.3   260  TYR260      0.1605
     73  C         27.4110    8.7080  -32.8920 C.2   260  TYR260      0.2264
     74  O         26.3030    8.2250  -32.6570 O.2   260  TYR260     -0.2867
     75  CB        28.8090    8.4220  -30.8250 C.3   260  TYR260      0.0534
     76  CG        29.9650    7.6970  -30.1700 C.ar  260  TYR260     -0.0201
     77  CD1       29.8550    6.3600  -29.8110 C.ar  260  TYR260     -0.0009
     78  CD2       31.1720    8.3410  -29.9320 C.ar  260  TYR260     -0.0009
     79  CE1       30.9090    5.6870  -29.2260 C.ar  260  TYR260      0.0417
     80  CE2       32.2350    7.6750  -29.3470 C.ar  260  TYR260      0.0417
     81  CZ        32.0980    6.3480  -28.9970 C.ar  260  TYR260      0.1957
     82  OH        33.1530    5.6770  -28.4140 O.3   260  TYR260     -0.2866
     83  N         20.4150    6.8660  -27.6460 N.3   315  LEU315     -0.1245
     84  CA        21.7920    7.2950  -27.4500 C.3   315  LEU315      0.1561
     85  C         21.8250    8.8110  -27.3450 C.2   315  LEU315      0.2260
     86  O         21.4040    9.5070  -28.2720 O.2   315  LEU315     -0.2867
     87  CB        22.6940    6.8230  -28.5890 C.3   315  LEU315      0.0270
     88  CG        24.1740    7.1650  -28.3870 C.3   315  LEU315      0.0019
     89  CD1       24.7330    6.4100  -27.1820 C.3   315  LEU315      0.0001
     90  CD2       24.9900    6.8750  -29.6280 C.3   315  LEU315      0.0001
     91  N         24.8490    3.3830  -18.4860 N.3   342  GLN342     -0.1231
     92  CA        25.9750    3.2350  -19.3820 C.3   342  GLN342      0.1698
     93  C         26.2870    1.7480  -19.4270 C.2   342  GLN342      0.2592
     94  O         25.6130    0.9620  -18.7670 O.2   342  GLN342     -0.2718
     95  CB        27.1630    4.0660  -18.9020 C.3   342  GLN342      0.0381
     96  CG        26.9910    5.5670  -19.1060 C.3   342  GLN342      0.0905
     97  CD        28.1560    6.3690  -18.5590 C.2   342  GLN342      0.2608
     98  OE1       28.8370    5.9390  -17.6280 O.2   342  GLN342     -0.2717
     99  NE2       28.3940    7.5400  -19.1390 N.am  342  GLN342     -0.0878
    100  N         27.2830    1.3530  -20.2070 N.am  343  ALA343     -0.1980
    101  CA        27.6180   -0.0630  -20.3320 C.3   343  ALA343      0.1597
    102  C         28.1550   -0.6150  -19.0140 C.2   343  ALA343      0.2287
    103  O         29.0710   -0.0450  -18.4200 O.2   343  ALA343     -0.2864
    104  CB        28.6210   -0.2740  -21.4440 C.3   343  ALA343      0.0319
@<TRIPOS>BOND
     1    71    72    1
     2    73    74    2
     3    73    72    1
     4    72    75    1
     5    75    76    1
     6    76    78   ar
     7    76    77   ar
     8    78    80   ar
     9    77    79   ar
    10    90    88    1
    11    80    81   ar
    12    79    81   ar
    13    81    82    1
    14    87    88    1
    15    87    84    1
    16    88    89    1
    17    86    85    2
    18    35    34    1
    19    83    84    1
    20    84    85    1
    21    57    56    1
    22    29    27    1
    23    43    41   ar
    24    34    31    1
    25    58    56    1
    26    56    55    1
    27    30    31    1
    28    30    24   am
    29    40    41    1
    30    40    37    1
    31    41    42   ar
    32    33    32    2
    33    23    22    1
    34    23    24    1
    35    23    26    1
    36    27    26    1
    37    27    28    1
    38    31    32    1
    39    32    36   am
    40    24    25    2
    41    55    52    1
    42     1     2    1
    43    36    37    1
    44    37    38    1
    45    70    68    1
    46    62    61    2
    47     5     2    1
    48     5     6    1
    49     2     3    1
    50    52    51    1
    51    52    53    1
    52    39    38    2
    53     6     7    1
    54    38    44   am
    55    69    68    1
    56     7     8    1
    57    68    65    1
    58    21    20    2
    59    65    64    1
    60    65    66    1
    61    61    64   am
    62    61    60    1
    63    59    53   am
    64    59    60    1
    65    53    54    2
    66     3     4    2
    67    44    50    1
    68    44    45    1
    69    50    49    1
    70    20    19    1
    71    66    67    2
    72    60    63    1
    73   104   101    1
    74    46    45    1
    75    46    47    2
    76    45    48    1
    77    19    18    1
    78    49    48    1
    79   101   100    1
    80   101   102    1
    81   100    93   am
    82    18    11   am
    83    12    11    2
    84    93    92    1
    85    93    94    2
    86    92    95    1
    87    92    91    1
    88    11    10    1
    89    99    97   am
    90    96    95    1
    91    96    97    1
    92   102   103    2
    93    97    98    2
    94     9    10    1
    95    10    13    1
    96    13    14    1
    97    14    15    1
    98    15    16    1
    99    16    17    1
