@<TRIPOS>MOLECULE
tmp/6qjeB02.pdb
 76 75 0 0 0
SMALL
GASTEIGER

@<TRIPOS>ATOM
      1  N        -28.6780   -9.0520   23.8930 N.3   101  PRO101     -0.2102
      2  CA       -28.4090  -10.4860   23.9760 C.3   101  PRO101      0.1504
      3  C        -29.3020  -11.2450   22.9970 C.2   101  PRO101      0.2576
      4  O        -30.3740  -10.7560   22.6420 O.2   101  PRO101     -0.2718
      5  CB       -28.7470  -10.8250   25.4300 C.3   101  PRO101      0.0282
      6  CG       -29.7400   -9.7960   25.8300 C.3   101  PRO101      0.0208
      7  CD       -29.3630   -8.5410   25.0920 C.3   101  PRO101      0.0893
      8  N        -28.8560  -12.4170   22.5610 N.am  102  GLY102     -0.1957
      9  CA       -29.6110  -13.2110   21.6140 C.3   102  GLY102      0.1869
     10  C        -28.8970  -14.5040   21.2790 C.2   102  GLY102      0.2309
     11  O        -28.3590  -15.1710   22.1620 O.2   102  GLY102     -0.2863
     12  N        -25.6030  -17.8710   22.2950 N.3   105  ARG105     -0.1245
     13  CA       -25.4580  -17.4030   23.6710 C.3   105  ARG105      0.1563
     14  C        -24.0200  -17.0820   24.0680 C.2   105  ARG105      0.2260
     15  O        -23.7890  -16.1990   24.8930 O.2   105  ARG105     -0.2867
     16  CB       -26.0270  -18.4420   24.6440 C.3   105  ARG105      0.0307
     17  CG       -27.5440  -18.6470   24.5600 C.3   105  ARG105      0.0489
     18  CD       -28.0340  -19.7020   25.5630 C.3   105  ARG105      0.2205
     19  NE       -27.7480  -21.0770   25.1400 N.pl3 105  ARG105     -0.0865
     20  CZ       -26.6040  -21.7260   25.3600 C.cat 105  ARG105      0.5346
     21  NH1      -25.6040  -21.1370   26.0060 N.pl3 105  ARG105      0.1354
     22  NH2      -26.4590  -22.9740   24.9270 N.pl3 105  ARG105      0.1354
     23  N        -23.0300  -13.5370   23.6320 N.3   108  ASN108     -0.1225
     24  CA       -23.6220  -12.5490   24.5310 C.3   108  ASN108      0.1785
     25  C        -22.6110  -12.0180   25.5380 C.2   108  ASN108      0.2597
     26  O        -22.6700  -10.8560   25.9370 O.2   108  ASN108     -0.2718
     27  CB       -24.8260  -13.1420   25.2640 C.3   108  ASN108      0.1169
     28  CG       -26.0240  -13.3390   24.3520 C.2   108  ASN108      0.2627
     29  OD1      -26.1310  -12.6990   23.3050 O.2   108  ASN108     -0.2716
     30  ND2      -26.9330  -14.2230   24.7470 N.am  108  ASN108     -0.0877
     31  N        -21.6770  -12.8760   25.9320 N.am  109  TYR109     -0.1976
     32  CA       -20.6380  -12.5060   26.8840 C.3   109  TYR109      0.1639
     33  C        -19.7240  -11.4370   26.3070 C.2   109  TYR109      0.2290
     34  O        -19.3720  -10.4680   26.9840 O.2   109  TYR109     -0.2864
     35  CB       -19.8240  -13.7350   27.2830 C.3   109  TYR109      0.0560
     36  CG       -20.6390  -14.7920   27.9860 C.ar  109  TYR109     -0.0198
     37  CD1      -21.1680  -14.5530   29.2450 C.ar  109  TYR109     -0.0009
     38  CD2      -20.8730  -16.0280   27.3990 C.ar  109  TYR109     -0.0009
     39  CE1      -21.9140  -15.5060   29.8990 C.ar  109  TYR109      0.0417
     40  CE2      -21.6170  -16.9950   28.0520 C.ar  109  TYR109      0.0417
     41  CZ       -22.1330  -16.7240   29.3070 C.ar  109  TYR109      0.1957
     42  OH       -22.8770  -17.6680   29.9730 O.3   109  TYR109     -0.2866
     43  N        -26.7190   -8.5680   32.5600 N.3   176  SER176     -0.1202
     44  CA       -27.5970   -8.0250   31.5290 C.3   176  SER176      0.2020
     45  C        -27.6900   -8.8980   30.2780 C.2   176  SER176      0.2619
     46  O        -28.7630   -9.0410   29.6930 O.2   176  SER176     -0.2717
     47  CB       -27.1310   -6.6240   31.1380 C.3   176  SER176      0.2103
     48  OG       -27.1050   -5.7690   32.2660 O.3   176  SER176     -0.2182
     49  N        -26.5670   -9.4810   29.8720 N.am  177  PHE177     -0.1961
     50  CA       -26.5150  -10.2090   28.6110 C.3   177  PHE177      0.1771
     51  C        -26.5610  -11.7270   28.7740 C.2   177  PHE177      0.2619
     52  O        -26.7970  -12.4490   27.8050 O.2   177  PHE177     -0.2715
     53  CB       -25.2600   -9.8070   27.8340 C.3   177  PHE177      0.0574
     54  CG       -25.4280   -8.5520   27.0240 C.ar  177  PHE177     -0.0200
     55  CD1      -25.5290   -7.3170   27.6450 C.ar  177  PHE177     -0.0042
     56  CD2      -25.4940   -8.6100   25.6400 C.ar  177  PHE177     -0.0042
     57  CE1      -25.6840   -6.1630   26.9020 C.ar  177  PHE177     -0.0003
     58  CE2      -25.6500   -7.4620   24.8900 C.ar  177  PHE177     -0.0003
     59  CZ       -25.7450   -6.2380   25.5180 C.ar  177  PHE177     -0.0000
     60  N        -26.3430  -12.2150   29.9920 N.am  178  ALA178     -0.1963
     61  CA       -26.4070  -13.6520   30.2320 C.3   178  ALA178      0.1728
     62  C        -27.4790  -14.0010   31.2600 C.2   178  ALA178      0.2617
     63  O        -27.7760  -15.1750   31.4830 O.2   178  ALA178     -0.2715
     64  CB       -25.0510  -14.1770   30.6760 C.3   178  ALA178      0.0334
     65  N        -28.0590  -12.9770   31.8810 N.am  179  GLY179     -0.1940
     66  CA       -29.0990  -13.1810   32.8750 C.3   179  GLY179      0.2014
     67  C        -28.6360  -14.0050   34.0630 C.2   179  GLY179      0.2638
     68  O        -29.3520  -14.8860   34.5350 O.2   179  GLY179     -0.2714
     69  N        -27.4270  -13.7230   34.5370 N.am  180  MET180     -0.1976
     70  CA       -26.8700  -14.4130   35.6920 C.3   180  MET180      0.1605
     71  C        -26.3480  -13.3950   36.7040 C.2   180  MET180      0.2287
     72  O        -25.3040  -12.7810   36.4970 O.2   180  MET180     -0.2864
     73  CB       -25.7610  -15.3780   35.2580 C.3   180  MET180      0.0413
     74  CG       -24.9660  -16.0030   36.3990 C.3   180  MET180      0.0598
     75  SD       -25.9770  -16.7570   37.6900 S.3   180  MET180     -0.1393
     76  CE       -26.9650  -17.9200   36.7440 C.3   180  MET180      0.0692
@<TRIPOS>BOND
     1    10     9    1
     2    10    11    2
     3     9     8    1
     4    12    13    1
     5     8     3   am
     6     4     3    2
     7     3     2    1
     8    29    28    2
     9    23    24    1
    10    13    14    1
    11    13    16    1
    12     1     2    1
    13     1     7    1
    14     2     5    1
    15    14    15    2
    16    28    30   am
    17    28    27    1
    18    24    27    1
    19    24    25    1
    20    17    16    1
    21    17    18    1
    22    58    59   ar
    23    58    56   ar
    24    22    20    1
    25     7     6    1
    26    19    20    2
    27    19    18    1
    28    20    21    1
    29     5     6    1
    30    59    57   ar
    31    25    31   am
    32    25    26    2
    33    56    54   ar
    34    31    32    1
    35    33    32    1
    36    33    34    2
    37    32    35    1
    38    57    55   ar
    39    54    55   ar
    40    54    53    1
    41    35    36    1
    42    38    36   ar
    43    38    40   ar
    44    52    51    2
    45    53    50    1
    46    36    37   ar
    47    40    41   ar
    48    50    51    1
    49    50    49    1
    50    51    60   am
    51    37    39   ar
    52    41    39   ar
    53    41    42    1
    54    46    45    2
    55    49    45   am
    56    60    61    1
    57    61    64    1
    58    61    62    1
    59    45    44    1
    60    47    44    1
    61    47    48    1
    62    62    63    2
    63    62    65   am
    64    44    43    1
    65    65    66    1
    66    66    67    1
    67    67    68    2
    68    67    69   am
    69    69    70    1
    70    73    70    1
    71    73    74    1
    72    70    71    1
    73    74    75    1
    74    72    71    2
    75    76    75    1
