@<TRIPOS>MOLECULE
tmp/6qp0A00.pdb
 144 137 0 0 0
SMALL
GASTEIGER

@<TRIPOS>ATOM
      1  N         -0.9570   25.1150   43.5980 N.3    10  SER10      -0.1217
      2  CA        -1.9720   24.2720   44.2300 C.3    10  SER10       0.1889
      3  C         -2.2720   24.7410   45.6530 C.2    10  SER10       0.2288
      4  O         -2.4670   23.9360   46.5670 O.2    10  SER10      -0.2866
      5  CB        -1.5470   22.8000   44.2230 C.3    10  SER10       0.2089
      6  OG        -0.3440   22.6120   43.4960 O.3    10  SER10      -0.2183
      7  N         -4.8670   26.9470   46.2480 N.3    12  GLY12      -0.1210
      8  CA        -6.2580   27.3390   46.3030 C.3    12  GLY12       0.1956
      9  C         -6.5970   28.6420   45.6140 C.2    12  GLY12       0.2612
     10  O         -7.6600   29.2070   45.8970 O.2    12  GLY12      -0.2717
     11  N         -5.7350   29.1340   44.7230 N.am   13  LYS13      -0.1965
     12  CA        -6.0170   30.3780   44.0150 C.3    13  LYS13       0.1728
     13  C         -7.3260   30.2810   43.2410 C.2    13  LYS13       0.2617
     14  O         -8.2320   31.1050   43.4150 O.2    13  LYS13      -0.2715
     15  CB        -4.8590   30.7150   43.0730 C.3    13  LYS13       0.0311
     16  CG        -3.5600   31.0710   43.7780 C.3    13  LYS13       0.0038
     17  CD        -2.4350   31.3230   42.7810 C.3    13  LYS13       0.0206
     18  CE        -1.5240   30.1120   42.6400 C.3    13  LYS13       0.1093
     19  NZ        -2.2640   28.8770   42.2610 N.3    13  LYS13      -0.1314
     20  N         -7.4410   29.2730   42.3710 N.am   14  THR14      -0.1937
     21  CA        -8.6340   29.1450   41.5410 C.3    14  THR14       0.2028
     22  C         -9.8830   28.9920   42.4000 C.2    14  THR14       0.2643
     23  O        -10.9300   29.5760   42.0990 O.2    14  THR14      -0.2714
     24  CB        -8.4900   27.9540   40.5910 C.3    14  THR14       0.1808
     25  OG1       -7.2490   28.0490   39.8790 O.3    14  THR14      -0.2208
     26  CG2       -9.6380   27.9230   39.5950 C.3    14  THR14       0.0379
     27  N         -9.7890   28.2160   43.4810 N.am   15  THR15      -0.1936
     28  CA       -10.9460   27.9990   44.3410 C.3    15  THR15       0.2028
     29  C        -11.4070   29.3050   44.9750 C.2    15  THR15       0.2642
     30  O        -12.6000   29.6310   44.9570 O.2    15  THR15      -0.2714
     31  CB       -10.6030   26.9640   45.4120 C.3    15  THR15       0.1808
     32  OG1       -9.8710   25.8870   44.8100 O.3    15  THR15      -0.2208
     33  CG2      -11.8690   26.4140   46.0520 C.3    15  THR15       0.0379
     34  N        -10.4710   30.0750   45.5360 N.am   16  ARG16      -0.1977
     35  CA       -10.8260   31.3670   46.1130 C.3    16  ARG16       0.1597
     36  C        -11.2340   32.3710   45.0410 C.2    16  ARG16       0.2287
     37  O        -12.1180   33.2020   45.2780 O.2    16  ARG16      -0.2864
     38  CB        -9.6570   31.9160   46.9300 C.3    16  ARG16       0.0334
     39  CG        -9.7960   31.7350   48.4400 C.3    16  ARG16       0.0492
     40  CD        -9.8710   30.2700   48.8450 C.3    16  ARG16       0.2205
     41  NE        -9.6440   30.0950   50.2780 N.pl3  16  ARG16      -0.0865
     42  CZ       -10.5680   30.2800   51.2180 C.cat  16  ARG16       0.5346
     43  NH1      -11.7980   30.6530   50.8890 N.pl3  16  ARG16       0.1354
     44  NH2      -10.2590   30.0960   52.4930 N.pl3  16  ARG16       0.1354
     45  N        -12.8570   31.8300   42.2510 N.3    18  ARG18      -0.1231
     46  CA       -14.2560   31.5840   41.9200 C.3    18  ARG18       0.1694
     47  C        -15.1750   32.2130   42.9580 C.2    18  ARG18       0.2591
     48  O        -16.1290   32.9210   42.6150 O.2    18  ARG18      -0.2718
     49  CB       -14.5120   30.0810   41.8150 C.3    18  ARG18       0.0321
     50  CG       -13.8350   29.4170   40.6280 C.3    18  ARG18       0.0489
     51  CD       -13.7840   27.9070   40.7960 C.3    18  ARG18       0.2205
     52  NE       -13.1760   27.2460   39.6460 N.pl3  18  ARG18      -0.0865
     53  CZ       -12.7510   25.9860   39.6430 C.cat  18  ARG18       0.5346
     54  NH1      -12.8560   25.2430   40.7360 N.pl3  18  ARG18       0.1354
     55  NH2      -12.2130   25.4710   38.5460 N.pl3  18  ARG18       0.1354
     56  N        -14.8980   31.9620   44.2420 N.am   19  GLN19      -0.1979
     57  CA       -15.6950   32.5550   45.3100 C.3    19  GLN19       0.1601
     58  C        -15.7210   34.0730   45.1970 C.2    19  GLN19       0.2287
     59  O        -16.7830   34.6960   45.3330 O.2    19  GLN19      -0.2864
     60  CB       -15.1330   32.1310   46.6680 C.3    19  GLN19       0.0394
     61  CG       -15.0890   30.6250   46.8820 C.3    19  GLN19       0.0908
     62  CD       -14.4010   30.2370   48.1790 C.2    19  GLN19       0.2608
     63  OE1      -14.2380   31.0600   49.0810 O.2    19  GLN19      -0.2717
     64  NE2      -13.9890   28.9780   48.2750 N.am   19  GLN19      -0.0878
     65  N          1.3520   24.9640   32.9240 N.3    46  ARG46      -0.1245
     66  CA         2.1630   25.1460   34.1210 C.3    46  ARG46       0.1563
     67  C          3.6400   24.8680   33.8840 C.2    46  ARG46       0.2260
     68  O          4.4600   25.1970   34.7480 O.2    46  ARG46      -0.2867
     69  CB         1.6490   24.2370   35.2390 C.3    46  ARG46       0.0307
     70  CG         0.2500   24.5740   35.7180 C.3    46  ARG46       0.0489
     71  CD        -0.3810   23.4030   36.4530 C.3    46  ARG46       0.2205
     72  NE        -1.6510   23.7670   37.0760 N.pl3  46  ARG46      -0.0865
     73  CZ        -2.7990   23.9040   36.4190 C.cat  46  ARG46       0.5346
     74  NH1       -2.8480   23.7170   35.1070 N.pl3  46  ARG46       0.1354
     75  NH2       -3.9020   24.2370   37.0760 N.pl3  46  ARG46       0.1354
     76  N         -6.1400   35.3770   38.3460 N.3    84  ASP84      -0.1239
     77  CA        -5.8690   34.1290   39.0600 C.3    84  ASP84       0.1674
     78  C         -4.6130   33.5080   38.4630 C.2    84  ASP84       0.2266
     79  O         -4.6610   32.7760   37.4730 O.2    84  ASP84      -0.2867
     80  CB        -7.0700   33.1950   38.9650 C.3    84  ASP84       0.1410
     81  CG        -6.7650   31.7820   39.4390 C.2    84  ASP84       0.3668
     82  OD1       -5.6830   31.5470   40.0140 O.co2  84  ASP84      -0.2456
     83  OD2       -7.6200   30.8970   39.2250 O.co2  84  ASP84      -0.2456
     84  N         -1.9420   18.3450   47.5990 N.3   122  VAL122     -0.1245
     85  CA        -2.8400   18.4910   46.4580 C.3   122  VAL122      0.1561
     86  C         -2.1440   18.0620   45.1710 C.2   122  VAL122      0.2260
     87  O         -2.6700   17.2480   44.4020 O.2   122  VAL122     -0.2867
     88  CB        -3.3480   19.9410   46.3610 C.3   122  VAL122      0.0252
     89  CG1       -4.0730   20.1640   45.0390 C.3   122  VAL122      0.0019
     90  CG2       -4.2580   20.2580   47.5330 C.3   122  VAL122      0.0019
     91  N         -3.2740   15.1540   42.4190 N.3   126  ARG126     -0.1245
     92  CA        -3.4980   15.4660   41.0130 C.3   126  ARG126      0.1563
     93  C         -2.4860   14.7700   40.1130 C.2   126  ARG126      0.2260
     94  O         -2.8240   14.4020   38.9820 O.2   126  ARG126     -0.2867
     95  CB        -3.4610   16.9800   40.8060 C.3   126  ARG126      0.0307
     96  CG        -4.6910   17.6790   41.3630 C.3   126  ARG126      0.0489
     97  CD        -4.6170   19.1880   41.2270 C.3   126  ARG126      0.2205
     98  NE        -5.9040   19.8100   41.5300 N.pl3 126  ARG126     -0.0865
     99  CZ        -6.1130   21.1220   41.5820 C.cat 126  ARG126      0.5346
    100  NH1       -5.1170   21.9670   41.3570 N.pl3 126  ARG126      0.1354
    101  NH2       -7.3230   21.5880   41.8610 N.pl3 126  ARG126      0.1354
    102  N         -7.8460   23.5250   35.2130 N.3   134  ASP134     -0.1225
    103  CA        -7.6840   24.0460   36.5620 C.3   134  ASP134      0.1805
    104  C         -7.2200   22.9830   37.5510 C.2   134  ASP134      0.2597
    105  O         -6.9760   23.3080   38.7180 O.2   134  ASP134     -0.2718
    106  CB        -9.0020   24.6530   37.0580 C.3   134  ASP134      0.1424
    107  CG        -9.2850   26.0130   36.4520 C.2   134  ASP134      0.3668
    108  OD1       -8.3240   26.6860   36.0240 O.co2 134  ASP134     -0.2456
    109  OD2      -10.4680   26.4150   36.4160 O.co2 134  ASP134     -0.2456
    110  N         -7.0990   21.7230   37.1170 N.am  135  GLU135     -0.1979
    111  CA        -6.6510   20.6370   37.9830 C.3   135  GLU135      0.1602
    112  C         -5.5420   19.8100   37.3360 C.2   135  GLU135      0.2287
    113  O         -5.3390   18.6500   37.7090 O.2   135  GLU135     -0.2864
    114  CB        -7.8270   19.7350   38.3800 C.3   135  GLU135      0.0415
    115  CG        -9.0460   19.8200   37.4650 C.3   135  GLU135      0.1163
    116  CD        -9.9940   20.9480   37.8410 C.2   135  GLU135      0.3649
    117  OE1      -10.1480   21.2240   39.0510 O.co2 135  GLU135     -0.2457
    118  OE2      -10.5860   21.5580   36.9240 O.co2 135  GLU135     -0.2457
    119  N          1.3910   19.8940   38.4500 N.3   138  TYR138     -0.1241
    120  CA         2.7480   20.2700   38.0920 C.3   138  TYR138      0.1605
    121  C          3.6520   19.0470   38.2050 C.2   138  TYR138      0.2264
    122  O          3.3730   18.1160   38.9670 O.2   138  TYR138     -0.2867
    123  CB         3.2850   21.3690   39.0120 C.3   138  TYR138      0.0534
    124  CG         2.4280   22.6100   39.1450 C.ar  138  TYR138     -0.0201
    125  CD1        1.1830   22.5640   39.7610 C.ar  138  TYR138     -0.0009
    126  CD2        2.8880   23.8400   38.6940 C.ar  138  TYR138     -0.0009
    127  CE1        0.4100   23.7030   39.8950 C.ar  138  TYR138      0.0417
    128  CE2        2.1250   24.9800   38.8270 C.ar  138  TYR138      0.0417
    129  CZ         0.8880   24.9070   39.4250 C.ar  138  TYR138      0.1957
    130  OH         0.1380   26.0510   39.5570 O.3   138  TYR138     -0.2866
    131  N         -7.1120   28.4010   54.0760 N.3   168  TRP168     -0.1241
    132  CA        -8.1450   27.4140   53.7830 C.3   168  TRP168      0.1605
    133  C         -9.1770   27.3560   54.9050 C.2   168  TRP168      0.2264
    134  O        -10.3880   27.3630   54.6540 O.2   168  TRP168     -0.2867
    135  CB        -7.5150   26.0380   53.5660 C.3   168  TRP168      0.0550
    136  CG        -6.8650   25.8660   52.2280 C.ar  168  TRP168      0.0003
    137  CD1       -6.5650   26.8460   51.3230 C.ar  168  TRP168      0.0946
    138  CD2       -6.4400   24.6320   51.6380 C.ar  168  TRP168      0.0152
    139  NE1       -5.9760   26.2960   50.2100 N.ar  168  TRP168     -0.2442
    140  CE2       -5.8880   24.9390   50.3780 C.ar  168  TRP168      0.0810
    141  CE3       -6.4700   23.2970   52.0540 C.ar  168  TRP168      0.0012
    142  CZ2       -5.3720   23.9600   49.5320 C.ar  168  TRP168      0.0191
    143  CZ3       -5.9570   22.3280   51.2120 C.ar  168  TRP168      0.0001
    144  CH2       -5.4150   22.6640   49.9660 C.ar  168  TRP168      0.0015
@<TRIPOS>BOND
     1    65    66    1
     2    67    66    1
     3    67    68    2
     4    66    69    1
     5    74    73    1
     6   102   103    1
     7    69    70    1
     8    70    71    1
     9   108   107   ar
    10   109   107   ar
    11    73    75    1
    12    73    72    2
    13   107   106    1
    14    71    72    1
    15   103   106    1
    16   103   104    1
    17   118   116   ar
    18   110   104   am
    19   110   111    1
    20   112   113    2
    21   112   111    1
    22   115   116    1
    23   115   114    1
    24    79    78    2
    25   104   105    2
    26   116   117   ar
    27   111   114    1
    28   120   121    1
    29   120   119    1
    30   120   123    1
    31   121   122    2
    32    76    77    1
    33    78    77    1
    34    55    53    1
    35   126   128   ar
    36   126   124   ar
    37   128   129   ar
    38    80    77    1
    39    80    81    1
    40    94    93    2
    41   123   124    1
    42   124   125   ar
    43    83    81   ar
    44   129   130    1
    45   129   127   ar
    46    81    82   ar
    47    26    24    1
    48    53    52    2
    49    53    54    1
    50    52    51    1
    51   125   127   ar
    52    25    24    1
    53    93    92    1
    54    24    21    1
    55    50    51    1
    56    50    49    1
    57    95    92    1
    58    95    96    1
    59    92    91    1
    60    97    96    1
    61    97    98    1
    62   100    99    1
    63    98    99    2
    64    21    20    1
    65    21    22    1
    66    99   101    1
    67    49    46    1
    68    46    45    1
    69    46    47    1
    70    23    22    2
    71    19    18    1
    72    20    13   am
    73    22    27   am
    74    48    47    2
    75    18    17    1
    76    17    16    1
    77    47    56   am
    78    15    16    1
    79    15    12    1
    80    13    14    2
    81    13    12    1
    82    27    28    1
    83     6     5    1
    84     1     2    1
    85    12    11    1
    86     5     2    1
    87     2     3    1
    88    56    57    1
    89    28    29    1
    90    28    31    1
    91    87    86    2
    92    11     9   am
    93    32    31    1
    94    30    29    2
    95    29    34   am
    96    89    88    1
    97    36    37    2
    98    36    35    1
    99    86    85    1
   100    58    57    1
   101    58    59    2
   102    57    60    1
   103    31    33    1
   104    34    35    1
   105     9    10    2
   106     9     8    1
   107     3     4    2
   108    35    38    1
   109     7     8    1
   110    88    85    1
   111    88    90    1
   112    85    84    1
   113    60    61    1
   114    61    62    1
   115    38    39    1
   116    62    64   am
   117    62    63    2
   118    39    40    1
   119    40    41    1
   120   142   144   ar
   121   142   140   ar
   122   144   143   ar
   123   139   140   ar
   124   139   137   ar
   125    41    42    2
   126   140   138   ar
   127    43    42    1
   128   143   141   ar
   129    42    44    1
   130   137   136   ar
   131   138   141   ar
   132   138   136   ar
   133   136   135    1
   134   135   132    1
   135   132   131    1
   136   132   133    1
   137   134   133    2
