@<TRIPOS>MOLECULE
tmp/6qp6A00.pdb
 211 205 0 0 0
SMALL
GASTEIGER

@<TRIPOS>ATOM
      1  N        116.8730   92.2890  123.2220 N.3   444  PHE444     -0.1241
      2  CA       115.9390   93.2800  123.7310 C.3   444  PHE444      0.1605
      3  C        115.3660   92.8550  125.0690 C.2   444  PHE444      0.2264
      4  O        115.0840   93.7020  125.9180 O.2   444  PHE444     -0.2867
      5  CB       114.8100   93.5120  122.7340 C.3   444  PHE444      0.0534
      6  CG       115.1770   94.4050  121.5920 C.ar  444  PHE444     -0.0203
      7  CD1      116.0230   95.4740  121.7750 C.ar  444  PHE444     -0.0042
      8  CD2      114.6650   94.1790  120.3330 C.ar  444  PHE444     -0.0042
      9  CE1      116.3500   96.2920  120.7230 C.ar  444  PHE444     -0.0003
     10  CE2      114.9990   94.9910  119.2820 C.ar  444  PHE444     -0.0003
     11  CZ       115.8400   96.0460  119.4790 C.ar  444  PHE444     -0.0000
     12  N        115.8820   95.3860  128.1270 N.3   448  PHE448     -0.1227
     13  CA       114.8060   96.2080  128.6420 C.3   448  PHE448      0.1736
     14  C        113.8370   95.5030  129.5710 C.2   448  PHE448      0.2595
     15  O        113.1280   96.1900  130.2960 O.2   448  PHE448     -0.2718
     16  CB       114.0080   96.8110  127.4850 C.3   448  PHE448      0.0547
     17  CG       114.8530   97.5070  126.4710 C.ar  448  PHE448     -0.0202
     18  CD1      115.8700   98.3480  126.8590 C.ar  448  PHE448     -0.0042
     19  CD2      114.6310   97.3140  125.1270 C.ar  448  PHE448     -0.0042
     20  CE1      116.6460   98.9730  125.9300 C.ar  448  PHE448     -0.0003
     21  CE2      115.4060   97.9440  124.1980 C.ar  448  PHE448     -0.0003
     22  CZ       116.4100   98.7700  124.5990 C.ar  448  PHE448     -0.0000
     23  N        113.7410   94.1780  129.5600 N.am  449  PHE449     -0.1976
     24  CA       112.7270   93.5120  130.3540 C.3   449  PHE449      0.1639
     25  C        113.3030   92.5210  131.3440 C.2   449  PHE449      0.2290
     26  O        112.5380   91.8020  131.9830 O.2   449  PHE449     -0.2864
     27  CB       111.7260   92.7920  129.4460 C.3   449  PHE449      0.0560
     28  CG       111.1800   93.6480  128.3380 C.ar  449  PHE449     -0.0200
     29  CD1      110.3680   94.7350  128.6190 C.ar  449  PHE449     -0.0042
     30  CD2      111.4710   93.3580  127.0130 C.ar  449  PHE449     -0.0042
     31  CE1      109.8650   95.5220  127.5960 C.ar  449  PHE449     -0.0003
     32  CE2      110.9720   94.1410  125.9890 C.ar  449  PHE449     -0.0003
     33  CZ       110.1700   95.2220  126.2810 C.ar  449  PHE449     -0.0000
     34  N        115.1280   91.8390  134.7810 N.3   451  GLY451     -0.1210
     35  CA       115.4460   92.4720  136.0340 C.3   451  GLY451      0.1956
     36  C        114.6880   93.7430  136.3210 C.2   451  GLY451      0.2612
     37  O        114.8660   94.3120  137.3960 O.2   451  GLY451     -0.2717
     38  N        113.8350   94.2080  135.4100 N.am  452  LYS452     -0.1965
     39  CA       113.1780   95.4880  135.6290 C.3   452  LYS452      0.1728
     40  C        111.9530   95.3420  136.5140 C.2   452  LYS452      0.2616
     41  O        111.6800   96.2090  137.3480 O.2   452  LYS452     -0.2715
     42  CB       112.7940   96.1190  134.2990 C.3   452  LYS452      0.0311
     43  CG       113.9660   96.4550  133.4130 C.3   452  LYS452      0.0038
     44  CD       115.0080   97.2520  134.1320 C.3   452  LYS452      0.0206
     45  CE       116.1980   97.5010  133.2490 C.3   452  LYS452      0.1093
     46  NZ       117.2990   98.1040  134.0340 N.3   452  LYS452     -0.1314
     47  N        111.2050   94.2610  136.3550 N.am  453  PHE453     -0.1960
     48  CA       109.9730   94.0540  137.1020 C.3   453  PHE453      0.1771
     49  C        110.1430   92.7950  137.9380 C.2   453  PHE453      0.2619
     50  O        109.7260   91.7100  137.5440 O.2   453  PHE453     -0.2715
     51  CB       108.7720   93.9400  136.1730 C.3   453  PHE453      0.0574
     52  CG       108.7830   94.9240  135.0410 C.ar  453  PHE453     -0.0200
     53  CD1      108.3640   96.2260  135.2390 C.ar  453  PHE453     -0.0042
     54  CD2      109.1940   94.5430  133.7770 C.ar  453  PHE453     -0.0042
     55  CE1      108.3680   97.1300  134.2090 C.ar  453  PHE453     -0.0003
     56  CE2      109.2030   95.4460  132.7430 C.ar  453  PHE453     -0.0003
     57  CZ       108.7890   96.7400  132.9600 C.ar  453  PHE453     -0.0000
     58  N        110.7590   92.9490  139.1070 N.am  454  VAL454     -0.1963
     59  CA       111.0210   91.8110  139.9760 C.3   454  VAL454      0.1727
     60  C        110.4760   92.0770  141.3690 C.2   454  VAL454      0.2616
     61  O        110.1880   91.1390  142.1150 O.2   454  VAL454     -0.2715
     62  CB       112.5210   91.4790  140.0340 C.3   454  VAL454      0.0290
     63  CG1      112.9840   90.9120  138.7240 C.3   454  VAL454      0.0023
     64  CG2      113.3230   92.7050  140.3800 C.3   454  VAL454      0.0023
     65  N        110.3170   93.3400  141.7320 N.am  455  GLY455     -0.1955
     66  CA       109.9160   93.6690  143.0800 C.3   455  GLY455      0.1869
     67  C        111.0500   93.4940  144.0680 C.2   455  GLY455      0.2309
     68  O        112.1940   93.2180  143.7230 O.2   455  GLY455     -0.2863
     69  N        118.5920   90.6900  138.1830 N.3   469  CYS469     -0.1235
     70  CA       119.8210   91.0730  137.5130 C.3   469  CYS469      0.1677
     71  C        120.9610   91.2580  138.5150 C.2   469  CYS469      0.2270
     72  O        120.7750   91.2210  139.7330 O.2   469  CYS469     -0.2867
     73  CB       119.5980   92.3540  136.7170 C.3   469  CYS469      0.0956
     74  SG       120.9340   92.7770  135.6260 S.3   469  CYS469     -0.0801
     75  N        115.2910  103.7740  114.6740 N.3   604  LEU604     -0.1245
     76  CA       115.0690  102.9960  115.8870 C.3   604  LEU604      0.1561
     77  C        116.3180  102.9360  116.7620 C.2   604  LEU604      0.2260
     78  O        116.2180  102.7550  117.9810 O.2   604  LEU604     -0.2867
     79  CB       114.6050  101.5960  115.5010 C.3   604  LEU604      0.0270
     80  CG       114.3130  100.5430  116.5580 C.3   604  LEU604      0.0019
     81  CD1      113.2480  101.0280  117.4910 C.3   604  LEU604      0.0001
     82  CD2      113.8850   99.2710  115.8980 C.3   604  LEU604      0.0001
     83  N        116.5900  105.6350  119.6660 N.3   607  VAL607     -0.1231
     84  CA       115.7310  105.2440  120.7740 C.3   607  VAL607      0.1692
     85  C        116.3420  104.0930  121.5500 C.2   607  VAL607      0.2592
     86  O        116.3880  104.1180  122.7840 O.2   607  VAL607     -0.2718
     87  CB       114.3440  104.8770  120.2280 C.3   607  VAL607      0.0266
     88  CG1      113.4600  104.3790  121.3200 C.3   607  VAL607      0.0020
     89  CG2      113.7300  106.0620  119.5450 C.3   607  VAL607      0.0020
     90  N        116.8710  103.0940  120.8400 N.am  608  THR608     -0.1953
     91  CA       117.3950  101.9080  121.5050 C.3   608  THR608      0.1897
     92  C        118.6830  102.2050  122.2590 C.2   608  THR608      0.2313
     93  O        118.8720  101.7110  123.3680 O.2   608  THR608     -0.2863
     94  CB       117.6060  100.7940  120.4930 C.3   608  THR608      0.1794
     95  OG1      116.4240  100.6480  119.7100 O.3   608  THR608     -0.2208
     96  CG2      117.8490   99.5080  121.1930 C.3   608  THR608      0.0378
     97  N        117.7650  104.1990  125.3880 N.3   611  MET611     -0.1245
     98  CA       117.1580  103.3470  126.3960 C.3   611  MET611      0.1570
     99  C        118.1480  102.3370  126.9490 C.2   611  MET611      0.2261
    100  O        118.0070  101.9140  128.0930 O.2   611  MET611     -0.2867
    101  CB       115.9360  102.6570  125.8210 C.3   611  MET611      0.0387
    102  CG       114.8060  103.6120  125.6670 C.3   611  MET611      0.0595
    103  SD       113.3390  102.9190  124.9370 S.3   611  MET611     -0.1393
    104  CE       112.3300  104.3950  124.8970 C.3   611  MET611      0.0692
    105  N        118.5140  102.5520  130.8300 N.3   615  PHE615     -0.1241
    106  CA       117.8490  101.4820  131.5520 C.3   615  PHE615      0.1605
    107  C        118.7330  100.2750  131.8220 C.2   615  PHE615      0.2264
    108  O        118.7150   99.7610  132.9390 O.2   615  PHE615     -0.2867
    109  CB       116.5960  101.0580  130.7900 C.3   615  PHE615      0.0534
    110  CG       115.5100  102.0810  130.8230 C.ar  615  PHE615     -0.0203
    111  CD1      115.2900  102.8300  131.9610 C.ar  615  PHE615     -0.0042
    112  CD2      114.7280  102.3160  129.7180 C.ar  615  PHE615     -0.0042
    113  CE1      114.3060  103.7800  131.9990 C.ar  615  PHE615     -0.0003
    114  CE2      113.7440  103.2670  129.7560 C.ar  615  PHE615     -0.0003
    115  CZ       113.5370  103.9970  130.8990 C.ar  615  PHE615     -0.0000
    116  N        119.6530   94.8340  144.9180 N.3   676  ARG676     -0.1231
    117  CA       119.7650   95.9290  143.9620 C.3   676  ARG676      0.1694
    118  C        118.3710   96.4490  143.6320 C.2   676  ARG676      0.2592
    119  O        117.6780   95.9730  142.7320 O.2   676  ARG676     -0.2718
    120  CB       120.4980   95.5110  142.7020 C.3   676  ARG676      0.0321
    121  CG       120.6310   96.6790  141.7400 C.3   676  ARG676      0.0489
    122  CD       121.3140   96.3140  140.4730 C.3   676  ARG676      0.2205
    123  NE       120.4410   95.8040  139.4270 N.pl3 676  ARG676     -0.0865
    124  CZ       120.4550   96.2710  138.1850 C.cat 676  ARG676      0.5346
    125  NH1      119.6580   95.7630  137.2570 N.pl3 676  ARG676      0.1354
    126  NH2      121.2970   97.2450  137.8700 N.pl3 676  ARG676      0.1354
    127  N        117.9610   97.4330  144.4220 N.am  677  ASP677     -0.1960
    128  CA       116.8420   98.3060  144.1180 C.3   677  ASP677      0.1840
    129  C        117.0040   99.5290  144.9930 C.2   677  ASP677      0.2622
    130  O        117.8750   99.5830  145.8570 O.2   677  ASP677     -0.2715
    131  CB       115.4830   97.6390  144.3420 C.3   677  ASP677      0.1450
    132  CG       114.3650   98.3060  143.5680 C.2   677  ASP677      0.3671
    133  OD1      113.2070   98.2110  144.0060 O.co2 677  ASP677     -0.2456
    134  OD2      114.6530   98.9860  142.5690 O.co2 677  ASP677     -0.2456
    135  N        116.1790  100.5260  144.7440 N.am  678  PHE678     -0.1960
    136  CA       116.2790  101.7790  145.4490 C.3   678  PHE678      0.1771
    137  C        115.1470  101.9660  146.4310 C.2   678  PHE678      0.2619
    138  O        114.7410  103.0910  146.6660 O.2   678  PHE678     -0.2715
    139  CB       116.3030  102.9280  144.4550 C.3   678  PHE678      0.0574
    140  CG       117.3270  102.7760  143.3730 C.ar  678  PHE678     -0.0200
    141  CD1      118.6520  102.8990  143.6630 C.ar  678  PHE678     -0.0042
    142  CD2      116.9630  102.5050  142.0800 C.ar  678  PHE678     -0.0042
    143  CE1      119.5990  102.7820  142.6920 C.ar  678  PHE678     -0.0003
    144  CE2      117.9010  102.3640  141.1020 C.ar  678  PHE678     -0.0003
    145  CZ       119.2220  102.5040  141.3960 C.ar  678  PHE678     -0.0000
    146  N        114.6280  100.8970  147.0040 N.am  679  ARG679     -0.1977
    147  CA       113.5300  101.0170  147.9370 C.3   679  ARG679      0.1597
    148  C        114.0300  101.4810  149.2970 C.2   679  ARG679      0.2287
    149  O        115.2270  101.4900  149.5780 O.2   679  ARG679     -0.2864
    150  CB       112.7990   99.6870  148.0210 C.3   679  ARG679      0.0334
    151  CG       112.0190   99.4270  146.7750 C.3   679  ARG679      0.0492
    152  CD       111.2430   98.1740  146.8360 C.3   679  ARG679      0.2205
    153  NE       110.1240   98.2170  145.9130 N.pl3 679  ARG679     -0.0865
    154  CZ       110.1300   97.6840  144.7030 C.cat 679  ARG679      0.5346
    155  NH1      111.1990   97.0500  144.2610 N.pl3 679  ARG679      0.1354
    156  NH2      109.0580   97.7780  143.9400 N.pl3 679  ARG679      0.1354
    157  N        109.2520  102.7720  147.1110 N.3   690  HIS690     -0.1241
    158  CA       110.2590  103.4810  146.3460 C.3   690  HIS690      0.1621
    159  C        110.5950  104.8040  147.0120 C.2   690  HIS690      0.2264
    160  O        109.7140  105.4780  147.5450 O.2   690  HIS690     -0.2867
    161  CB       109.7520  103.7090  144.9440 C.3   690  HIS690      0.0745
    162  CG       109.9050  102.5230  144.0580 C.ar  690  HIS690      0.0817
    163  ND1      111.1000  101.8630  143.9060 N.ar  690  HIS690     -0.2268
    164  CD2      109.0220  101.8980  143.2500 C.ar  690  HIS690      0.1154
    165  CE1      110.9430  100.8680  143.0520 C.ar  690  HIS690      0.1986
    166  NE2      109.6910  100.8700  142.6380 N.ar  690  HIS690     -0.2212
    167  N        115.2070  106.7780  144.2620 N.3   694  TYR694     -0.1241
    168  CA       114.6600  106.0830  143.1020 C.3   694  TYR694      0.1605
    169  C        113.9850  107.0450  142.1680 C.2   694  TYR694      0.2264
    170  O        114.1610  106.9650  140.9510 O.2   694  TYR694     -0.2867
    171  CB       113.6320  105.0440  143.5000 C.3   694  TYR694      0.0534
    172  CG       112.9290  104.4420  142.3130 C.ar  694  TYR694     -0.0201
    173  CD1      113.6140  103.6770  141.3920 C.ar  694  TYR694     -0.0009
    174  CD2      111.5900  104.6490  142.1020 C.ar  694  TYR694     -0.0009
    175  CE1      112.9730  103.1370  140.3060 C.ar  694  TYR694      0.0417
    176  CE2      110.9470  104.1040  141.0250 C.ar  694  TYR694      0.0417
    177  CZ       111.6400  103.3600  140.1310 C.ar  694  TYR694      0.1957
    178  OH       110.9810  102.8240  139.0530 O.3   694  TYR694     -0.2866
    179  N        115.0950  107.8060  138.3640 N.3   698  ILE698     -0.1245
    180  CA       114.2400  107.5010  137.2260 C.3   698  ILE698      0.1561
    181  C        113.8480  108.7790  136.4960 C.2   698  ILE698      0.2260
    182  O        113.6880  108.7710  135.2720 O.2   698  ILE698     -0.2867
    183  CB       113.0260  106.6520  137.6580 C.3   698  ILE698      0.0252
    184  CG1      112.4420  105.9200  136.4660 C.3   698  ILE698      0.0019
    185  CG2      111.9440  107.4610  138.1970 C.3   698  ILE698      0.0019
    186  CD1      113.1620  104.6660  136.1280 C.3   698  ILE698      0.0001
    187  N        116.8700  109.3090  134.3570 N.3   701  LYS701     -0.1231
    188  CA       116.8350  108.3550  133.2510 C.3   701  LYS701      0.1693
    189  C        115.9140  108.8300  132.1450 C.2   701  LYS701      0.2591
    190  O        116.3000  108.8490  130.9730 O.2   701  LYS701     -0.2718
    191  CB       116.3600  106.9930  133.7370 C.3   701  LYS701      0.0285
    192  CG       117.3720  106.1530  134.4630 C.3   701  LYS701      0.0035
    193  CD       116.7150  104.8840  134.9400 C.3   701  LYS701      0.0206
    194  CE       117.6060  104.0920  135.8380 C.3   701  LYS701      0.1093
    195  NZ       118.6540  103.3880  135.0730 N.3   701  LYS701     -0.1314
    196  N        114.6980  109.2420  132.5000 N.am  702  LEU702     -0.1980
    197  CA       113.7710  109.7200  131.4850 C.3   702  LEU702      0.1596
    198  C        114.1930  111.0610  130.9070 C.2   702  LEU702      0.2287
    199  O        114.0170  111.2850  129.7050 O.2   702  LEU702     -0.2864
    200  CB       112.3620  109.7950  132.0540 C.3   702  LEU702      0.0297
    201  CG       111.8420  108.4910  132.6430 C.3   702  LEU702      0.0022
    202  CD1      110.6580  108.7540  133.5100 C.3   702  LEU702      0.0001
    203  CD2      111.4970  107.5000  131.5900 C.3   702  LEU702      0.0001
    204  N        116.8950  110.1940  128.3780 N.3   705  ILE705     -0.1245
    205  CA       116.2810  109.7000  127.1470 C.3   705  ILE705      0.1561
    206  C        115.7390  110.8500  126.3230 C.2   705  ILE705      0.2260
    207  O        116.0100  110.9390  125.1260 O.2   705  ILE705     -0.2867
    208  CB       115.1760  108.6820  127.4600 C.3   705  ILE705      0.0252
    209  CG1      115.7650  107.4490  128.0970 C.3   705  ILE705      0.0019
    210  CG2      114.4800  108.2560  126.2080 C.3   705  ILE705      0.0019
    211  CD1      114.7490  106.5420  128.6360 C.3   705  ILE705      0.0001
@<TRIPOS>BOND
     1    75    76    1
     2    79    76    1
     3    79    80    1
     4    76    77    1
     5    82    80    1
     6    80    81    1
     7    77    78    2
     8    10    11   ar
     9    10     8   ar
    10    11     9   ar
    11    89    87    1
    12    83    84    1
    13    95    94    1
    14    87    84    1
    15    87    88    1
    16     8     6   ar
    17    94    96    1
    18    94    91    1
    19     9     7   ar
    20    84    85    1
    21    90    91    1
    22    90    85   am
    23    91    92    1
    24    85    86    2
    25     6     7   ar
    26     6     5    1
    27    92    93    2
    28     5     2    1
    29     1     2    1
    30     2     3    1
    31    21    22   ar
    32    21    19   ar
    33    22    20   ar
    34   104   103    1
    35   103   102    1
    36     3     4    2
    37   207   206    2
    38    19    17   ar
    39    97    98    1
    40   102   101    1
    41   101    98    1
    42    20    18   ar
    43    32    33   ar
    44    32    30   ar
    45   210   208    1
    46    33    31   ar
    47   206   205    1
    48    98    99    1
    49    17    18   ar
    50    17    16    1
    51    99   100    2
    52    30    28   ar
    53   205   208    1
    54   205   204    1
    55   208   209    1
    56    16    13    1
    57    31    29   ar
    58   209   211    1
    59    12    13    1
    60    28    29   ar
    61    28    27    1
    62    13    14    1
    63    27    24    1
    64    23    14   am
    65    23    24    1
    66    14    15    2
    67   199   198    2
    68   112   114   ar
    69   112   110   ar
    70   114   115   ar
    71    24    25    1
    72   109   110    1
    73   109   106    1
    74   110   111   ar
    75   105   106    1
    76   115   113   ar
    77   198   197    1
    78   190   189    2
    79    25    26    2
    80   197   200    1
    81   197   196    1
    82   106   107    1
    83   203   201    1
    84   107   108    2
    85   111   113   ar
    86   200   201    1
    87   189   196   am
    88   189   188    1
    89   201   202    1
    90    56    57   ar
    91    56    54   ar
    92    57    55   ar
    93    45    46    1
    94    45    44    1
    95   188   191    1
    96   188   187    1
    97    43    44    1
    98    43    42    1
    99   191   192    1
   100    54    52   ar
   101    55    53   ar
   102    42    39    1
   103   192   193    1
   104    34    35    1
   105   193   194    1
   106    52    53   ar
   107    52    51    1
   108   195   194    1
   109   182   181    2
   110    38    39    1
   111    38    36   am
   112    74    73    1
   113    39    40    1
   114    35    36    1
   115   186   184    1
   116    51    48    1
   117    36    37    2
   118    47    40   am
   119    47    48    1
   120   184   183    1
   121   181   180    1
   122    40    41    2
   123    73    70    1
   124    48    49    1
   125   180   183    1
   126   180   179    1
   127   125   124    1
   128    70    69    1
   129    70    71    1
   130    50    49    2
   131   183   185    1
   132   126   124    1
   133    49    58   am
   134   124   123    2
   135    71    72    2
   136    63    62    1
   137   178   177    1
   138    58    59    1
   139   123   122    1
   140    59    62    1
   141    59    60    1
   142    62    64    1
   143   177   175   ar
   144   177   176   ar
   145   175   173   ar
   146   122   121    1
   147   170   169    2
   148   176   174   ar
   149   144   145   ar
   150   144   142   ar
   151    60    65   am
   152    60    61    2
   153   173   172   ar
   154   145   143   ar
   155    65    66    1
   156   121   120    1
   157   142   140   ar
   158   174   172   ar
   159   169   168    1
   160   172   171    1
   161   134   132   ar
   162   166   165   ar
   163   166   164   ar
   164   143   141   ar
   165   120   117    1
   166   119   118    2
   167   165   163   ar
   168    66    67    1
   169   168   171    1
   170   168   167    1
   171   164   162   ar
   172   140   141   ar
   173   140   139    1
   174   132   133   ar
   175   132   131    1
   176   118   117    1
   177   118   127   am
   178    68    67    2
   179   163   162   ar
   180   156   154    1
   181   117   116    1
   182   162   161    1
   183   128   131    1
   184   128   127    1
   185   128   129    1
   186   155   154    1
   187   139   136    1
   188   154   153    2
   189   135   129   am
   190   135   136    1
   191   161   158    1
   192   129   130    2
   193   136   137    1
   194   153   152    1
   195   158   159    1
   196   158   157    1
   197   137   138    2
   198   137   146   am
   199   151   152    1
   200   151   150    1
   201   146   147    1
   202   159   160    2
   203   147   150    1
   204   147   148    1
   205   148   149    2
