@<TRIPOS>MOLECULE
tmp/6qpcB01.pdb
 217 212 0 0 0
SMALL
GASTEIGER

@<TRIPOS>ATOM
      1  N        121.3870  147.7900  142.2820 N.3   318  PHE318     -0.1241
      2  CA       122.4780  146.9970  142.8200 C.3   318  PHE318      0.1605
      3  C        122.9460  147.5330  144.1550 C.2   318  PHE318      0.2264
      4  O        123.3580  146.7510  145.0100 O.2   318  PHE318     -0.2867
      5  CB       123.6410  146.9620  141.8370 C.3   318  PHE318      0.0534
      6  CG       123.4390  146.0230  140.6960 C.ar  318  PHE318     -0.0203
      7  CD1      122.7060  144.8690  140.8530 C.ar  318  PHE318     -0.0042
      8  CD2      123.9860  146.2920  139.4640 C.ar  318  PHE318     -0.0042
      9  CE1      122.5260  143.9990  139.8040 C.ar  318  PHE318     -0.0003
     10  CE2      123.8030  145.4280  138.4090 C.ar  318  PHE318     -0.0003
     11  CZ       123.0740  144.2820  138.5810 C.ar  318  PHE318     -0.0000
     12  N        122.7880  144.8150  147.0770 N.3   322  PHE322     -0.1241
     13  CA       124.0100  144.2160  147.5780 C.3   322  PHE322      0.1605
     14  C        124.8810  145.1380  148.4120 C.2   322  PHE322      0.2264
     15  O        125.8200  144.6500  149.0450 O.2   322  PHE322     -0.2867
     16  CB       124.8740  143.6930  146.4220 C.3   322  PHE322      0.0534
     17  CG       124.1170  142.9270  145.3940 C.ar  322  PHE322     -0.0203
     18  CD1      123.2070  141.9610  145.7580 C.ar  322  PHE322     -0.0042
     19  CD2      124.3370  143.1570  144.0580 C.ar  322  PHE322     -0.0042
     20  CE1      122.5120  141.2750  144.8140 C.ar  322  PHE322     -0.0003
     21  CE2      123.6520  142.4500  143.1080 C.ar  322  PHE322     -0.0003
     22  CZ       122.7400  141.5110  143.4870 C.ar  322  PHE322     -0.0000
     23  N        123.0130  148.6730  153.5010 N.3   325  GLY325     -0.1210
     24  CA       122.7910  147.9630  154.7390 C.3   325  GLY325      0.1956
     25  C        123.5400  146.6610  154.8740 C.2   325  GLY325      0.2612
     26  O        123.3590  145.9640  155.8790 O.2   325  GLY325     -0.2717
     27  N        124.3620  146.3000  153.8910 N.am  326  LYS326     -0.1965
     28  CA       125.0670  145.0300  153.9290 C.3   326  LYS326      0.1728
     29  C        126.3780  145.1520  154.6820 C.2   326  LYS326      0.2616
     30  O        126.8210  144.1970  155.3250 O.2   326  LYS326     -0.2715
     31  CB       125.3080  144.5330  152.5060 C.3   326  LYS326      0.0311
     32  CG       124.0300  144.2780  151.7340 C.3   326  LYS326      0.0038
     33  CD       123.2420  143.1570  152.3600 C.3   326  LYS326      0.0206
     34  CE       121.7880  143.2220  151.9680 C.3   326  LYS326      0.1093
     35  NZ       120.9910  142.2420  152.7500 N.3   326  LYS326     -0.1314
     36  N        127.0080  146.3130  154.6220 N.am  327  PHE327     -0.1960
     37  CA       128.3140  146.4930  155.2210 C.3   327  PHE327      0.1771
     38  C        128.2630  147.2820  156.5080 C.2   327  PHE327      0.2619
     39  O        129.3110  147.5800  157.0770 O.2   327  PHE327     -0.2715
     40  CB       129.2490  147.1650  154.2270 C.3   327  PHE327      0.0574
     41  CG       129.6610  146.2710  153.1070 C.ar  327  PHE327     -0.0200
     42  CD1      128.9110  146.2000  151.9460 C.ar  327  PHE327     -0.0042
     43  CD2      130.7860  145.4760  153.2230 C.ar  327  PHE327     -0.0042
     44  CE1      129.2880  145.3690  150.9110 C.ar  327  PHE327     -0.0003
     45  CE2      131.1670  144.6420  152.1970 C.ar  327  PHE327     -0.0003
     46  CZ       130.4170  144.5890  151.0390 C.ar  327  PHE327     -0.0000
     47  N        127.0740  147.6270  156.9820 N.am  328  VAL328     -0.1963
     48  CA       126.9770  148.3180  158.2530 C.3   328  VAL328      0.1727
     49  C        127.2320  147.3230  159.3740 C.2   328  VAL328      0.2616
     50  O        126.7610  146.1820  159.3410 O.2   328  VAL328     -0.2715
     51  CB       125.5910  148.9660  158.3890 C.3   328  VAL328      0.0290
     52  CG1      125.5170  149.7940  159.6430 C.3   328  VAL328      0.0023
     53  CG2      125.2920  149.7910  157.1680 C.3   328  VAL328      0.0023
     54  N        127.9790  147.7530  160.3780 N.am  329  GLY329     -0.1955
     55  CA       128.1930  146.8850  161.5080 C.3   329  GLY329      0.1869
     56  C        127.1790  147.1330  162.5960 C.2   329  GLY329      0.2309
     57  O        126.0660  147.5960  162.3380 O.2   329  GLY329     -0.2863
     58  N        121.3300  151.7200  157.7570 N.3   345  GLU345     -0.1245
     59  CA       120.8000  150.4440  158.2140 C.3   345  GLU345      0.1567
     60  C        119.4250  150.2260  157.6140 C.2   345  GLU345      0.2260
     61  O        118.6400  151.1660  157.4680 O.2   345  GLU345     -0.2867
     62  CB       120.6940  150.3900  159.7380 C.3   345  GLU345      0.0388
     63  CG       121.9770  150.1130  160.4860 C.3   345  GLU345      0.1160
     64  CD       122.6860  151.3750  160.9330 C.2   345  GLU345      0.3649
     65  OE1      122.8240  152.3040  160.1130 O.co2 345  GLU345     -0.2457
     66  OE2      123.1260  151.4310  162.0990 O.co2 345  GLU345     -0.2457
     67  N        124.4600  136.5160  133.9200 N.3   477  LEU477     -0.1245
     68  CA       124.4950  137.3540  135.1050 C.3   477  LEU477      0.1561
     69  C        123.2270  137.2240  135.9310 C.2   477  LEU477      0.2260
     70  O        123.2560  137.4820  137.1360 O.2   477  LEU477     -0.2867
     71  CB       124.7120  138.8060  134.6830 C.3   477  LEU477      0.0270
     72  CG       124.9570  139.8810  135.7330 C.3   477  LEU477      0.0019
     73  CD1      126.0610  139.4560  136.6550 C.3   477  LEU477      0.0001
     74  CD2      125.3020  141.1800  135.0650 C.3   477  LEU477      0.0001
     75  N        123.5200  134.5110  138.8320 N.3   480  VAL480     -0.1231
     76  CA       124.3100  135.0340  139.9400 C.3   480  VAL480      0.1692
     77  C        123.5410  136.1130  140.6760 C.2   480  VAL480      0.2592
     78  O        123.5080  136.1370  141.9090 O.2   480  VAL480     -0.2718
     79  CB       125.6550  135.5630  139.4160 C.3   480  VAL480      0.0266
     80  CG1      126.4550  136.1660  140.5340 C.3   480  VAL480      0.0020
     81  CG2      126.4240  134.4580  138.7440 C.3   480  VAL480      0.0020
     82  N        122.8500  136.9750  139.9360 N.am  481  THR481     -0.1953
     83  CA       122.1750  138.1050  140.5500 C.3   481  THR481      0.1897
     84  C        120.9540  137.6550  141.3390 C.2   481  THR481      0.2313
     85  O        120.7270  138.1260  142.4550 O.2   481  THR481     -0.2863
     86  CB       121.7880  139.1030  139.4710 C.3   481  THR481      0.1794
     87  OG1      122.9180  139.3350  138.6320 O.3   481  THR481     -0.2208
     88  CG2      121.4240  140.4020  140.0980 C.3   481  THR481      0.0378
     89  N        122.2590  135.9750  144.5460 N.3   484  MET484     -0.1245
     90  CA       122.5830  136.9530  145.5740 C.3   484  MET484      0.1570
     91  C        121.3560  137.7220  146.0450 C.2   484  MET484      0.2261
     92  O        121.4000  138.3110  147.1230 O.2   484  MET484     -0.2867
     93  CB       123.6260  137.9610  145.1050 C.3   484  MET484      0.0387
     94  CG       124.8830  137.4340  144.4620 C.3   484  MET484      0.0595
     95  SD       125.8320  136.2610  145.4100 S.3   484  MET484     -0.1393
     96  CE       127.1000  135.8440  144.2220 C.3   484  MET484      0.0692
     97  N        121.3950  137.1850  149.7020 N.3   488  PHE488     -0.1241
     98  CA       121.8670  138.4010  150.3430 C.3   488  PHE488      0.1605
     99  C        120.7990  139.4690  150.4920 C.2   488  PHE488      0.2264
    100  O        120.7670  140.1470  151.5230 O.2   488  PHE488     -0.2867
    101  CB       123.0550  138.9550  149.5650 C.3   488  PHE488      0.0534
    102  CG       124.2810  138.1170  149.7000 C.ar  488  PHE488     -0.0203
    103  CD1      124.5820  137.5210  150.9100 C.ar  488  PHE488     -0.0042
    104  CD2      125.1180  137.8980  148.6250 C.ar  488  PHE488     -0.0042
    105  CE1      125.7030  136.7370  151.0510 C.ar  488  PHE488     -0.0003
    106  CE2      126.2440  137.1110  148.7690 C.ar  488  PHE488     -0.0003
    107  CZ       126.5320  136.5310  149.9800 C.ar  488  PHE488     -0.0000
    108  N        118.7640  144.8580  163.4620 N.3   526  ARG526     -0.1231
    109  CA       118.6840  143.7010  162.5780 C.3   526  ARG526      0.1694
    110  C        120.0850  143.2610  162.2020 C.2   526  ARG526      0.2592
    111  O        120.6800  143.7960  161.2640 O.2   526  ARG526     -0.2718
    112  CB       117.8820  144.0170  161.3250 C.3   526  ARG526      0.0321
    113  CG       117.7310  142.8170  160.4060 C.3   526  ARG526      0.0489
    114  CD       117.8100  143.2180  158.9530 C.3   526  ARG526      0.2205
    115  NE       118.9530  144.0780  158.6830 N.pl3 526  ARG526     -0.0865
    116  CZ       119.3930  144.3540  157.4620 C.cat 526  ARG526      0.5346
    117  NH1      120.4390  145.1520  157.2910 N.pl3 526  ARG526      0.1354
    118  NH2      118.7900  143.8270  156.4070 N.pl3 526  ARG526      0.1354
    119  N        120.6050  142.2720  162.9240 N.am  527  ASP527     -0.1960
    120  CA       121.8950  141.6690  162.6080 C.3   527  ASP527      0.1840
    121  C        121.9810  140.3590  163.3740 C.2   527  ASP527      0.2622
    122  O        121.2190  140.1170  164.3120 O.2   527  ASP527     -0.2715
    123  CB       123.0670  142.5760  162.9930 C.3   527  ASP527      0.1450
    124  CG       124.3190  142.2750  162.2020 C.2   527  ASP527      0.3671
    125  OD1      124.4240  142.7720  161.0650 O.co2 527  ASP527     -0.2456
    126  OD2      125.1870  141.5330  162.7010 O.co2 527  ASP527     -0.2456
    127  N        122.9350  139.5260  162.9740 N.am  528  PHE528     -0.1960
    128  CA       123.2710  138.2960  163.6760 C.3   528  PHE528      0.1771
    129  C        124.6010  138.5310  164.3750 C.2   528  PHE528      0.2619
    130  O        125.6650  138.2410  163.8400 O.2   528  PHE528     -0.2715
    131  CB       123.3840  137.1510  162.7560 C.3   528  PHE528      0.0574
    132  CG       122.1470  136.8350  162.0040 C.ar  528  PHE528     -0.0200
    133  CD1      121.1840  136.0150  162.5560 C.ar  528  PHE528     -0.0042
    134  CD2      121.9750  137.3010  160.7170 C.ar  528  PHE528     -0.0042
    135  CE1      120.0570  135.6960  161.8520 C.ar  528  PHE528     -0.0003
    136  CE2      120.8470  136.9890  160.0080 C.ar  528  PHE528     -0.0003
    137  CZ       119.8860  136.1870  160.5750 C.ar  528  PHE528     -0.0000
    138  N        124.5430  139.0650  165.5800 N.am  529  ARG529     -0.1977
    139  CA       125.7560  139.3590  166.3150 C.3   529  ARG529      0.1597
    140  C        125.6160  138.8560  167.7290 C.2   529  ARG529      0.2287
    141  O        124.5750  139.0590  168.3600 O.2   529  ARG529     -0.2864
    142  CB       126.0600  140.8460  166.3050 C.3   529  ARG529      0.0334
    143  CG       127.1270  141.1810  165.3080 C.3   529  ARG529      0.0492
    144  CD       127.3090  142.6550  165.1470 C.3   529  ARG529      0.2205
    145  NE       128.6160  142.9570  164.5880 N.pl3 529  ARG529     -0.0865
    146  CZ       128.8760  142.9860  163.2880 C.cat 529  ARG529      0.5346
    147  NH1      127.9180  142.7360  162.4100 N.pl3 529  ARG529      0.1354
    148  NH2      130.0960  143.2700  162.8640 N.pl3 529  ARG529      0.1354
    149  N        130.5580  138.3520  165.3490 N.3   540  HIS540     -0.1241
    150  CA       129.5710  137.4710  164.7480 C.3   540  HIS540      0.1621
    151  C        129.4940  136.1600  165.5190 C.2   540  HIS540      0.2264
    152  O        130.5160  135.6070  165.9280 O.2   540  HIS540     -0.2867
    153  CB       129.9360  137.2180  163.3030 C.3   540  HIS540      0.0745
    154  CG       130.0200  138.4580  162.4800 C.ar  540  HIS540      0.0817
    155  ND1      128.9490  138.9560  161.7780 N.ar  540  HIS540     -0.2268
    156  CD2      131.0520  139.2960  162.2360 C.ar  540  HIS540      0.1154
    157  CE1      129.3140  140.0450  161.1290 C.ar  540  HIS540      0.1986
    158  NE2      130.5870  140.2760  161.3930 N.ar  540  HIS540     -0.2212
    159  N        125.2560  133.6500  162.9380 N.3   544  TYR544     -0.1227
    160  CA       125.6610  134.4130  161.7620 C.3   544  TYR544      0.1736
    161  C        126.3680  133.5250  160.7730 C.2   544  TYR544      0.2595
    162  O        126.0770  133.5600  159.5770 O.2   544  TYR544     -0.2718
    163  CB       126.5970  135.5550  162.1400 C.3   544  TYR544      0.0548
    164  CG       127.1260  136.3580  160.9550 C.ar  544  TYR544     -0.0200
    165  CD1      126.3910  137.3980  160.4190 C.ar  544  TYR544     -0.0009
    166  CD2      128.3710  136.0980  160.3950 C.ar  544  TYR544     -0.0009
    167  CE1      126.8740  138.1390  159.3580 C.ar  544  TYR544      0.0417
    168  CE2      128.8540  136.8300  159.3440 C.ar  544  TYR544      0.0417
    169  CZ       128.1070  137.8450  158.8340 C.ar  544  TYR544      0.1957
    170  OH       128.5970  138.5740  157.7840 O.3   544  TYR544     -0.2866
    171  N        127.3250  132.7450  161.2570 N.am  545  TRP545     -0.1976
    172  CA       128.1260  131.9440  160.3510 C.3   545  TRP545      0.1640
    173  C        127.3380  130.7690  159.8220 C.2   545  TRP545      0.2290
    174  O        127.5370  130.3780  158.6720 O.2   545  TRP545     -0.2864
    175  CB       129.4040  131.5060  161.0410 C.3   545  TRP545      0.0576
    176  CG       130.3490  132.6280  161.1770 C.ar  545  TRP545      0.0006
    177  CD1      130.7050  133.2480  162.3160 C.ar  545  TRP545      0.0946
    178  CD2      131.0380  133.3000  160.1230 C.ar  545  TRP545      0.0152
    179  NE1      131.5950  134.2510  162.0540 N.ar  545  TRP545     -0.2442
    180  CE2      131.8110  134.3050  160.7060 C.ar  545  TRP545      0.0810
    181  CE3      131.0870  133.1360  158.7420 C.ar  545  TRP545      0.0012
    182  CZ2      132.6160  135.1430  159.9620 C.ar  545  TRP545      0.0191
    183  CZ3      131.8810  133.9720  158.0040 C.ar  545  TRP545      0.0001
    184  CH2      132.6370  134.9590  158.6100 C.ar  545  TRP545      0.0015
    185  N        125.0530  132.5580  157.1640 N.3   548  ILE548     -0.1245
    186  CA       125.8020  133.0120  156.0070 C.3   548  ILE548      0.1561
    187  C        126.4580  131.8470  155.2850 C.2   548  ILE548      0.2260
    188  O        126.6350  131.9180  154.0670 O.2   548  ILE548     -0.2867
    189  CB       126.8010  134.1080  156.4100 C.3   548  ILE548      0.0252
    190  CG1      127.0740  135.0180  155.2280 C.3   548  ILE548      0.0019
    191  CG2      128.0980  133.5500  156.8640 C.3   548  ILE548      0.0019
    192  CD1      127.8030  136.2500  155.6080 C.3   548  ILE548      0.0001
    193  N        123.6780  130.7320  153.2150 N.3   551  LYS551     -0.1231
    194  CA       123.5660  131.6670  152.1020 C.3   551  LYS551      0.1693
    195  C        124.5410  131.3160  150.9950 C.2   551  LYS551      0.2591
    196  O        124.1530  131.1950  149.8300 O.2   551  LYS551     -0.2718
    197  CB       123.8320  133.0900  152.5790 C.3   551  LYS551      0.0285
    198  CG       122.7050  133.7490  153.3120 C.3   551  LYS551      0.0035
    199  CD       123.2270  134.9400  154.0670 C.3   551  LYS551      0.0206
    200  CE       122.1330  135.8910  154.4350 C.3   551  LYS551      0.1093
    201  NZ       121.9450  136.8900  153.3710 N.3   551  LYS551     -0.1314
    202  N        125.8140  131.1290  151.3500 N.am  552  LEU552     -0.1980
    203  CA       126.8300  130.8440  150.3430 C.3   552  LEU552      0.1596
    204  C        126.6340  129.4660  149.7350 C.2   552  LEU552      0.2287
    205  O        126.8340  129.2830  148.5290 O.2   552  LEU552     -0.2864
    206  CB       128.2170  130.9680  150.9560 C.3   552  LEU552      0.0297
    207  CG       128.5380  132.3470  151.5180 C.3   552  LEU552      0.0022
    208  CD1      129.7570  132.2990  152.3970 C.3   552  LEU552      0.0001
    209  CD2      128.7100  133.3670  150.4340 C.3   552  LEU552      0.0001
    210  N        123.9410  129.8400  147.2560 N.3   555  ILE555     -0.1245
    211  CA       124.4530  130.4490  146.0350 C.3   555  ILE555      0.1561
    212  C        125.1520  129.4070  145.1800 C.2   555  ILE555      0.2260
    213  O        124.9080  129.3160  143.9760 O.2   555  ILE555     -0.2867
    214  CB       125.3830  131.6240  146.3760 C.3   555  ILE555      0.0252
    215  CG1      124.5930  132.7400  147.0300 C.3   555  ILE555      0.0019
    216  CG2      126.0000  132.1900  145.1450 C.3   555  ILE555      0.0019
    217  CD1      125.4260  133.6020  147.9070 C.3   555  ILE555      0.0001
@<TRIPOS>BOND
     1    67    68    1
     2    71    68    1
     3    71    72    1
     4    74    72    1
     5    68    69    1
     6    72    73    1
     7    69    70    2
     8    10    11   ar
     9    10     8   ar
    10    11     9   ar
    11    87    86    1
    12    81    79    1
    13    75    76    1
    14    79    76    1
    15    79    80    1
    16     8     6   ar
    17    86    88    1
    18    86    83    1
    19     9     7   ar
    20    82    83    1
    21    82    77   am
    22    76    77    1
    23    83    84    1
    24    77    78    2
    25     6     7   ar
    26     6     5    1
    27    84    85    2
    28     5     2    1
    29     1     2    1
    30     2     3    1
    31    21    22   ar
    32    21    19   ar
    33    22    20   ar
    34   213   212    2
    35    19    17   ar
    36     3     4    2
    37    96    95    1
    38    94    93    1
    39    94    95    1
    40    89    90    1
    41    20    18   ar
    42    93    90    1
    43   216   214    1
    44   212   211    1
    45    17    18   ar
    46    17    16    1
    47    90    91    1
    48   211   214    1
    49   211   210    1
    50    91    92    2
    51   214   215    1
    52    16    13    1
    53   215   217    1
    54    12    13    1
    55    13    14    1
    56    14    15    2
    57   205   204    2
    58   104   106   ar
    59   104   102   ar
    60   106   107   ar
    61   101   102    1
    62   101    98    1
    63   102   103   ar
    64    97    98    1
    65   204   203    1
    66   196   195    2
    67   107   105   ar
    68    98    99    1
    69   203   206    1
    70   203   202    1
    71   209   207    1
    72    99   100    2
    73   103   105   ar
    74    44    46   ar
    75    44    42   ar
    76   206   207    1
    77   195   202   am
    78   195   194    1
    79    46    45   ar
    80   207   208    1
    81    32    33    1
    82    32    31    1
    83    42    41   ar
    84    34    33    1
    85    34    35    1
    86   194   197    1
    87   194   193    1
    88    45    43   ar
    89    31    28    1
    90   197   198    1
    91    41    43   ar
    92    41    40    1
    93   198   199    1
    94   201   200    1
    95    23    24    1
    96    27    28    1
    97    27    25   am
    98    28    29    1
    99   199   200    1
   100   188   187    2
   101    40    37    1
   102    36    29   am
   103    36    37    1
   104    29    30    2
   105    24    25    1
   106    25    26    2
   107    37    38    1
   108   190   192    1
   109   190   189    1
   110   187   186    1
   111   186   189    1
   112   186   185    1
   113   118   116    1
   114   189   191    1
   115    38    47   am
   116    38    39    2
   117    47    48    1
   118    53    51    1
   119   117   116    1
   120   116   115    2
   121    61    60    2
   122    60    59    1
   123    58    59    1
   124   170   169    1
   125   183   184   ar
   126   183   181   ar
   127    59    62    1
   128    48    51    1
   129    48    49    1
   130    51    52    1
   131   184   182   ar
   132   174   173    2
   133   115   114    1
   134   181   178   ar
   135   169   168   ar
   136   169   167   ar
   137   114   113    1
   138    50    49    2
   139   168   166   ar
   140   167   165   ar
   141    49    54   am
   142   162   161    2
   143    62    63    1
   144   173   172    1
   145   182   180   ar
   146   136   137   ar
   147   136   134   ar
   148    65    64   ar
   149   178   180   ar
   150   178   176   ar
   151   172   175    1
   152   172   171    1
   153    54    55    1
   154   166   164   ar
   155   113   112    1
   156   165   164   ar
   157    63    64    1
   158   137   135   ar
   159   180   179   ar
   160   134   132   ar
   161   161   171   am
   162   161   160    1
   163    64    66   ar
   164   164   163    1
   165   175   176    1
   166   125   124   ar
   167   157   158   ar
   168   157   155   ar
   169   176   177   ar
   170   111   110    2
   171   112   109    1
   172   158   156   ar
   173    55    56    1
   174   160   163    1
   175   160   159    1
   176   155   154   ar
   177   135   133   ar
   178   132   133   ar
   179   132   131    1
   180   179   177   ar
   181   124   126   ar
   182   124   123    1
   183   110   109    1
   184   110   119   am
   185   156   154   ar
   186    57    56    2
   187   147   146    1
   188   154   153    1
   189   109   108    1
   190   120   119    1
   191   120   123    1
   192   120   121    1
   193   131   128    1
   194   148   146    1
   195   127   121   am
   196   127   128    1
   197   146   145    2
   198   153   150    1
   199   121   122    2
   200   128   129    1
   201   130   129    2
   202   129   138   am
   203   145   144    1
   204   150   149    1
   205   150   151    1
   206   144   143    1
   207   143   142    1
   208   151   152    2
   209   138   139    1
   210   142   139    1
   211   139   140    1
   212   140   141    2
