@<TRIPOS>MOLECULE
tmp/6qs5A00.pdb
 150 142 0 0 0
SMALL
GASTEIGER

@<TRIPOS>ATOM
      1  N         26.2410    7.5570   26.2960 N.3    39  VAL39      -0.1231
      2  CA        24.8590    7.1830   26.0350 C.3    39  VAL39       0.1692
      3  C         24.8180    5.7990   25.4050 C.2    39  VAL39       0.2592
      4  O         23.8580    5.0430   25.5970 O.2    39  VAL39      -0.2718
      5  CB        24.1860    8.2500   25.1470 C.3    39  VAL39       0.0266
      6  CG1       23.0750    7.6810   24.3160 C.3    39  VAL39       0.0020
      7  CG2       23.6630    9.3790   26.0270 C.3    39  VAL39       0.0020
      8  N         25.8700    5.4350   24.6860 N.am   40  GLY40      -0.1957
      9  CA        25.8490    4.1690   23.9760 C.3    40  GLY40       0.1869
     10  C         27.2050    3.8900   23.3770 C.2    40  GLY40       0.2309
     11  O         28.0890    4.7480   23.3470 O.2    40  GLY40      -0.2863
     12  N         31.7400    2.6980   17.1320 N.3    45  SER45      -0.1217
     13  CA        31.4620    4.0470   17.5780 C.3    45  SER45       0.1889
     14  C         31.2360    4.0460   19.0760 C.2    45  SER45       0.2288
     15  O         30.8590    3.0290   19.6660 O.2    45  SER45      -0.2866
     16  CB        30.2360    4.6300   16.8660 C.3    45  SER45       0.2089
     17  OG        29.0350    4.1390   17.4400 O.3    45  SER45      -0.2183
     18  N         29.0460    6.8370   21.5970 N.3    47  VAL47      -0.1245
     19  CA        28.0090    7.8440   21.4190 C.3    47  VAL47       0.1561
     20  C         27.7740    8.5400   22.7490 C.2    47  VAL47       0.2260
     21  O         27.6860    7.8900   23.7990 O.2    47  VAL47      -0.2867
     22  CB        26.6970    7.2210   20.8840 C.3    47  VAL47       0.0252
     23  CG1       25.6660    8.2850   20.6500 C.3    47  VAL47       0.0019
     24  CG2       26.9630    6.4560   19.6020 C.3    47  VAL47       0.0019
     25  N         23.8480   14.8800   19.8130 N.3    60  ILE60      -0.1245
     26  CA        24.5250   13.5970   19.9380 C.3    60  ILE60       0.1561
     27  C         25.9010   13.7330   19.3030 C.2    60  ILE60       0.2260
     28  O         26.0210   14.2020   18.1630 O.2    60  ILE60      -0.2867
     29  CB        23.7220   12.4730   19.2670 C.3    60  ILE60       0.0252
     30  CG1       22.5200   12.0690   20.1300 C.3    60  ILE60       0.0019
     31  CG2       24.6110   11.2810   19.0040 C.3    60  ILE60       0.0019
     32  CD1       22.8590   11.2240   21.3100 C.3    60  ILE60       0.0001
     33  N         28.8050   11.4290   18.0200 N.3    62  LYS62      -0.1245
     34  CA        29.1610   10.0520   17.6760 C.3    62  LYS62       0.1561
     35  C         30.6360   10.0130   17.2900 C.2    62  LYS62       0.2260
     36  O         31.0080   10.4490   16.1960 O.2    62  LYS62      -0.2867
     37  CB        28.2830    9.5130   16.5440 C.3    62  LYS62       0.0271
     38  CG        28.6050    8.0700   16.1350 C.3    62  LYS62       0.0035
     39  CD        27.5740    7.5670   15.1000 C.3    62  LYS62       0.0206
     40  CE        27.8380    6.1190   14.7060 C.3    62  LYS62       0.1093
     41  NZ        26.8300    5.6830   13.6410 N.3    62  LYS62      -0.1314
     42  N         28.9640    6.3260    5.3690 N.3    75  GLU75      -0.1245
     43  CA        27.9530    6.7620    6.3310 C.3    75  GLU75       0.1567
     44  C         27.6190    8.2420    6.1650 C.2    75  GLU75       0.2260
     45  O         26.4440    8.6230    6.2090 O.2    75  GLU75      -0.2867
     46  CB        28.4230    6.4800    7.7670 C.3    75  GLU75       0.0388
     47  CG        27.3930    6.8890    8.8190 C.3    75  GLU75       0.1160
     48  CD        27.7340    6.4390   10.2330 C.2    75  GLU75       0.3649
     49  OE1       28.6810    5.6400   10.4130 O.co2  75  GLU75      -0.2457
     50  OE2       27.0230    6.8700   11.1670 O.co2  75  GLU75      -0.2457
     51  N         23.9440    9.7490    5.0680 N.3    79  LEU79      -0.1245
     52  CA        23.2150   10.6320    5.9720 C.3    79  LEU79       0.1561
     53  C         22.8900   11.9590    5.2970 C.2    79  LEU79       0.2260
     54  O         21.7990   12.5100    5.4860 O.2    79  LEU79      -0.2867
     55  CB        24.0370   10.8730    7.2460 C.3    79  LEU79       0.0270
     56  CG        24.1360    9.6540    8.1680 C.3    79  LEU79       0.0019
     57  CD1       25.3670    9.7860    9.0350 C.3    79  LEU79       0.0001
     58  CD2       22.8900    9.5170    9.0280 C.3    79  LEU79       0.0001
     59  N         17.4460   10.0640   11.2030 N.3    89  VAL89      -0.1245
     60  CA        18.2530   10.9020   12.0800 C.3    89  VAL89       0.1561
     61  C         18.9490   11.9710   11.2490 C.2    89  VAL89       0.2260
     62  O         19.4020   11.7170   10.1240 O.2    89  VAL89      -0.2867
     63  CB        19.2630   10.0560   12.8760 C.3    89  VAL89       0.0252
     64  CG1       20.3810    9.5430   11.9780 C.3    89  VAL89       0.0019
     65  CG2       19.8060   10.8760   14.0380 C.3    89  VAL89       0.0019
     66  N         24.6690   14.8370   15.6600 N.3   107  PHE107     -0.1227
     67  CA        23.2740   14.6270   15.2920 C.3   107  PHE107      0.1736
     68  C         22.3670   15.3870   16.2450 C.2   107  PHE107      0.2595
     69  O         22.7810   15.8180   17.3230 O.2   107  PHE107     -0.2718
     70  CB        22.8700   13.1390   15.3390 C.3   107  PHE107      0.0547
     71  CG        23.6920   12.2440   14.4620 C.ar  107  PHE107     -0.0202
     72  CD1       23.3010   11.9950   13.1530 C.ar  107  PHE107     -0.0042
     73  CD2       24.8280   11.6120   14.9530 C.ar  107  PHE107     -0.0042
     74  CE1       24.0400   11.1610   12.3360 C.ar  107  PHE107     -0.0003
     75  CE2       25.5790   10.7750   14.1390 C.ar  107  PHE107     -0.0003
     76  CZ        25.1750   10.5470   12.8190 C.ar  107  PHE107     -0.0000
     77  N         21.1050   15.5270   15.8340 N.am  108  GLU108     -0.1965
     78  CA        20.0240   15.8540   16.7560 C.3   108  GLU108      0.1733
     79  C         20.0380   14.8650   17.9180 C.2   108  GLU108      0.2616
     80  O         20.5390   13.7390   17.7770 O.2   108  GLU108     -0.2715
     81  CB        18.6720   15.8000   16.0340 C.3   108  GLU108      0.0429
     82  CG        18.3270   14.3750   15.5580 C.3   108  GLU108      0.1163
     83  CD        16.9950   14.2660   14.8200 C.2   108  GLU108      0.3649
     84  OE1       15.9770   14.8180   15.2910 O.co2 108  GLU108     -0.2457
     85  OE2       16.9810   13.6240   13.7590 O.co2 108  GLU108     -0.2457
     86  N         19.4910   15.2570   19.0650 N.am  109  TYR109     -0.1960
     87  CA        19.4180   14.3780   20.2250 C.3   109  TYR109      0.1771
     88  C         17.9950   13.8630   20.3930 C.2   109  TYR109      0.2619
     89  O         17.0390   14.6410   20.3450 O.2   109  TYR109     -0.2715
     90  CB        19.8740   15.0980   21.5000 C.3   109  TYR109      0.0574
     91  CG        19.6270   14.3080   22.7680 C.ar  109  TYR109     -0.0198
     92  CD1       20.4640   13.2610   23.1310 C.ar  109  TYR109     -0.0009
     93  CD2       18.5590   14.6090   23.6020 C.ar  109  TYR109     -0.0009
     94  CE1       20.2460   12.5300   24.2980 C.ar  109  TYR109      0.0417
     95  CE2       18.3340   13.8880   24.7670 C.ar  109  TYR109      0.0417
     96  CZ        19.1780   12.8500   25.1080 C.ar  109  TYR109      0.1957
     97  OH        18.9560   12.1350   26.2640 O.3   109  TYR109     -0.2866
     98  N         17.8610   12.5530   20.5820 N.am  110  VAL110     -0.1977
     99  CA        16.5950   11.9310   20.9480 C.3   110  VAL110      0.1596
    100  C         16.6870   11.4730   22.3940 C.2   110  VAL110      0.2287
    101  O         17.6120   10.7400   22.7610 O.2   110  VAL110     -0.2864
    102  CB        16.2570   10.7380   20.0440 C.3   110  VAL110      0.0276
    103  CG1       14.9890   10.0850   20.5440 C.3   110  VAL110      0.0022
    104  CG2       16.1550   11.1680   18.5860 C.3   110  VAL110      0.0022
    105  N         15.8570    9.0620   24.2660 N.3   112  ASN112     -0.1240
    106  CA        15.3990    7.6990   24.0500 C.3   112  ASN112      0.1653
    107  C         15.1390    6.9720   25.3630 C.2   112  ASN112      0.2266
    108  O         15.8200    7.1980   26.3680 O.2   112  ASN112     -0.2867
    109  CB        16.4410    6.9350   23.2310 C.3   112  ASN112      0.1155
    110  CG        16.0930    5.4670   23.0530 C.2   112  ASN112      0.2627
    111  OD1       15.1910    5.1070   22.2770 O.2   112  ASN112     -0.2716
    112  ND2       16.8230    4.6050   23.7560 N.am  112  ASN112     -0.0877
    113  N         15.4940    4.9870   17.8160 N.3   157  MET157     -0.1245
    114  CA        15.3940    5.8410   18.9940 C.3   157  MET157      0.1570
    115  C         13.9590    6.3280   19.1330 C.2   157  MET157      0.2261
    116  O         13.3450    6.7440   18.1470 O.2   157  MET157     -0.2867
    117  CB        16.3450    7.0310   18.8830 C.3   157  MET157      0.0387
    118  CG        17.8090    6.6520   18.8310 C.3   157  MET157      0.0595
    119  SD        18.3110    5.9480   20.4060 S.3   157  MET157     -0.1393
    120  CE        18.3610    4.1990   20.0180 C.3   157  MET157      0.0692
    121  N         18.4370    5.2310   13.4270 N.3   168  ILE168     -0.1231
    122  CA        19.8080    5.7070   13.6090 C.3   168  ILE168      0.1692
    123  C         20.8480    4.7180   13.0880 C.2   168  ILE168      0.2592
    124  O         20.5110    3.6850   12.4920 O.2   168  ILE168     -0.2718
    125  CB        20.1050    6.0200   15.0920 C.3   168  ILE168      0.0266
    126  CG1       19.9700    4.7520   15.9410 C.3   168  ILE168      0.0019
    127  CG2       19.2210    7.1410   15.6060 C.3   168  ILE168      0.0020
    128  CD1       20.7930    4.7850   17.2630 C.3   168  ILE168      0.0001
    129  N         22.1270    5.0420   13.3440 N.am  169  ASP169     -0.1960
    130  CA        23.3320    4.2750   13.0130 C.3   169  ASP169      0.1840
    131  C         23.3220    3.7110   11.5970 C.2   169  ASP169      0.2622
    132  O         23.1060    2.5100   11.3880 O.2   169  ASP169     -0.2715
    133  CB        23.5700    3.1610   14.0440 C.3   169  ASP169      0.1450
    134  CG        24.9840    2.5690   13.9590 C.2   169  ASP169      0.3671
    135  OD1       25.2680    1.5730   14.6650 O.co2 169  ASP169     -0.2456
    136  OD2       25.8140    3.0910   13.1860 O.co2 169  ASP169     -0.2456
    137  N         23.6280    4.5760   10.6300 N.am  170  TRP170     -0.1974
    138  CA        23.7260    4.2330    9.2220 C.3   170  TRP170      0.1640
    139  C         25.1190    3.7630    8.8110 C.2   170  TRP170      0.2290
    140  O         25.4370    3.7750    7.6170 O.2   170  TRP170     -0.2864
    141  CB        23.2910    5.4470    8.3950 C.3   170  TRP170      0.0576
    142  CG        21.8490    5.7690    8.6780 C.ar  170  TRP170      0.0006
    143  CD1       21.3700    6.4360    9.7600 C.ar  170  TRP170      0.0946
    144  CD2       20.7000    5.3730    7.9090 C.ar  170  TRP170      0.0152
    145  NE1       20.0000    6.5070    9.7090 N.ar  170  TRP170     -0.2442
    146  CE2       19.5640    5.8580    8.5850 C.ar  170  TRP170      0.0810
    147  CE3       20.5240    4.6660    6.7120 C.ar  170  TRP170      0.0012
    148  CZ2       18.2720    5.6660    8.1100 C.ar  170  TRP170      0.0191
    149  CZ3       19.2270    4.4620    6.2440 C.ar  170  TRP170      0.0001
    150  CH2       18.1230    4.9640    6.9410 C.ar  170  TRP170      0.0015
@<TRIPOS>BOND
     1    51    52    1
     2    53    54    2
     3    53    52    1
     4    42    43    1
     5    52    55    1
     6    44    45    2
     7    44    43    1
     8   149   147   ar
     9   149   150   ar
    10    43    46    1
    11   147   144   ar
    12   150   148   ar
    13    55    56    1
    14   140   139    2
    15    46    47    1
    16   144   146   ar
    17   144   142   ar
    18   148   146   ar
    19    56    58    1
    20    56    57    1
    21   141   142    1
    22   141   138    1
    23   146   145   ar
    24   142   143   ar
    25   139   138    1
    26    47    48    1
    27   138   137    1
    28   145   143   ar
    29    62    61    2
    30    48    49   ar
    31    48    50   ar
    32   137   131   am
    33    59    60    1
    34    61    60    1
    35   132   131    2
    36   131   130    1
    37    64    63    1
    38    60    63    1
    39    74    76   ar
    40    74    72   ar
    41   124   123    2
    42    76    75   ar
    43    63    65    1
    44   130   129    1
    45   130   133    1
    46   123   129   am
    47   123   122    1
    48    72    71   ar
    49   136   134   ar
    50   121   122    1
    51   122   125    1
    52    41    40    1
    53    85    83   ar
    54   134   133    1
    55   134   135   ar
    56    75    73   ar
    57    71    73   ar
    58    71    70    1
    59    40    39    1
    60    83    84   ar
    61    83    82    1
    62   125   127    1
    63   125   126    1
    64    39    38    1
    65    67    70    1
    66    67    66    1
    67    67    68    1
    68    82    81    1
    69    77    68   am
    70    77    78    1
    71   126   128    1
    72    81    78    1
    73    38    37    1
    74    36    35    2
    75    68    69    2
    76    37    34    1
    77    78    79    1
    78    16    17    1
    79    16    13    1
    80    12    13    1
    81    35    34    1
    82    13    14    1
    83    34    33    1
    84    80    79    2
    85   113   114    1
    86    79    86   am
    87   116   115    2
    88    28    27    2
    89   104   102    1
    90   118   117    1
    91   118   119    1
    92   117   114    1
    93   114   115    1
    94    31    29    1
    95    86    87    1
    96    14    15    2
    97    29    26    1
    98    29    30    1
    99    27    26    1
   100    24    22    1
   101    25    26    1
   102   120   119    1
   103   102   103    1
   104   102    99    1
   105    30    32    1
   106    87    88    1
   107    87    90    1
   108    89    88    2
   109    88    98   am
   110    98    99    1
   111    23    22    1
   112    22    19    1
   113    99   100    1
   114    19    18    1
   115    19    20    1
   116    90    91    1
   117   111   110    2
   118   100   101    2
   119    20    21    2
   120    91    92   ar
   121    91    93   ar
   122   110   109    1
   123   110   112   am
   124    92    94   ar
   125   109   106    1
   126    11    10    2
   127    10     9    1
   128    93    95   ar
   129     9     8    1
   130   106   105    1
   131   106   107    1
   132    94    96   ar
   133     6     5    1
   134     8     3   am
   135    95    96   ar
   136    96    97    1
   137     5     7    1
   138     5     2    1
   139   107   108    2
   140     3     4    2
   141     3     2    1
   142     2     1    1
