@<TRIPOS>MOLECULE
tmp/6r1rA00.pdb
 95 95 0 0 0
SMALL
GASTEIGER

@<TRIPOS>ATOM
      1  N         -6.0020   70.5380   31.8030 N.3   559  ALA559     -0.1231
      2  CA        -5.6180   69.4490   30.9030 C.3   559  ALA559      0.1694
      3  C         -5.8490   68.0900   31.5690 C.2   559  ALA559      0.2592
      4  O         -6.4330   67.1920   30.9660 O.2   559  ALA559     -0.2718
      5  CB        -4.1500   69.6010   30.4810 C.3   559  ALA559      0.0304
      6  N         -5.4920   68.0150   32.8570 N.am  560  LYS560     -0.1966
      7  CA        -5.8390   66.8940   33.7020 C.3   560  LYS560      0.1728
      8  C         -7.3060   66.5490   33.4720 C.2   560  LYS560      0.2616
      9  O         -7.6570   65.4530   33.0260 O.2   560  LYS560     -0.2715
     10  CB        -5.5520   67.1490   35.1860 C.3   560  LYS560      0.0311
     11  CG        -4.0660   67.2430   35.4620 C.3   560  LYS560      0.0038
     12  CD        -3.5510   66.4500   36.6420 C.3   560  LYS560      0.0206
     13  CE        -2.6200   67.3050   37.4930 C.3   560  LYS560      0.1093
     14  NZ        -3.4380   67.9630   38.5690 N.3   560  LYS560     -0.1314
     15  N         -8.1930   67.4950   33.7160 N.am  561  GLU561     -0.1963
     16  CA        -9.6270   67.2920   33.5740 C.3   561  GLU561      0.1733
     17  C        -10.1410   66.9380   32.1970 C.2   561  GLU561      0.2616
     18  O        -11.1060   66.1760   32.0830 O.2   561  GLU561     -0.2715
     19  CB       -10.3430   68.5200   34.1500 C.3   561  GLU561      0.0429
     20  CG       -11.8580   68.4370   34.0410 C.3   561  GLU561      0.1163
     21  CD       -12.4960   69.5850   34.7880 C.2   561  GLU561      0.3649
     22  OE1      -12.0570   69.8710   35.9170 O.co2 561  GLU561     -0.2457
     23  OE2      -13.4140   70.2180   34.2450 O.co2 561  GLU561     -0.2457
     24  N         -9.7430   67.6370   31.1500 N.am  562  GLN562     -0.1963
     25  CA       -10.3130   67.5480   29.8130 C.3   562  GLN562      0.1733
     26  C         -9.3540   67.2590   28.6650 C.2   562  GLN562      0.2617
     27  O         -9.7510   67.1950   27.5030 O.2   562  GLN562     -0.2715
     28  CB       -11.0040   68.8860   29.4770 C.3   562  GLN562      0.0408
     29  CG       -11.6910   69.5490   30.6440 C.3   562  GLN562      0.0908
     30  CD       -12.8360   70.4160   30.1840 C.2   562  GLN562      0.2608
     31  OE1      -12.9800   70.5680   28.9740 O.2   562  GLN562     -0.2717
     32  NE2      -13.5930   70.9470   31.1440 N.am  562  GLN562     -0.0878
     33  N         -8.0670   67.0730   28.9420 N.am  563  GLY563     -0.1940
     34  CA        -7.0780   66.7820   27.9270 C.3   563  GLY563      0.2014
     35  C         -6.3380   67.9940   27.3800 C.2   563  GLY563      0.2639
     36  O         -6.9130   69.0690   27.1170 O.2   563  GLY563     -0.2714
     37  N         -5.0260   67.8030   27.1780 N.am  564  ALA564     -0.1963
     38  CA        -4.1900   68.8750   26.6340 C.3   564  ALA564      0.1728
     39  C         -4.6750   69.2070   25.2190 C.2   564  ALA564      0.2616
     40  O         -5.2990   68.3770   24.5570 O.2   564  ALA564     -0.2715
     41  CB        -2.7210   68.5070   26.5280 C.3   564  ALA564      0.0334
     42  N         -4.3410   70.4080   24.7460 N.am  565  CYS565     -0.1954
     43  CA        -4.6850   70.7650   23.3720 C.3   565  CYS565      0.1828
     44  C         -3.9970   69.7840   22.4380 C.2   565  CYS565      0.2467
     45  O         -2.8460   69.3890   22.6240 O.2   565  CYS565     -0.2730
     46  CB        -4.1670   72.1680   23.0260 C.3   565  CYS565      0.0996
     47  SG        -2.4010   72.3080   23.4460 S.3   565  CYS565     -0.0797
     48  N         -4.6860   69.4340   21.3780 N.am  566  PRO566     -0.2726
     49  CA        -4.1990   68.5540   20.3340 C.3   566  PRO566      0.1402
     50  C         -2.7520   68.7660   19.9700 C.2   566  PRO566      0.2269
     51  O         -2.0390   67.7680   19.8760 O.2   566  PRO566     -0.2865
     52  CB        -5.0800   68.7880   19.0910 C.3   566  PRO566      0.0296
     53  CG        -6.3290   69.3010   19.7410 C.3   566  PRO566      0.0237
     54  CD        -6.0460   69.9030   21.0880 C.3   566  PRO566      0.0939
     55  N         -0.2650   70.1030   21.6490 N.3   568  PHE568     -0.1241
     56  CA         0.5860   70.4150   22.7960 C.3   568  PHE568      0.1605
     57  C          2.0170   69.9560   22.5820 C.2   568  PHE568      0.2264
     58  O          2.9320   70.6530   23.0370 O.2   568  PHE568     -0.2867
     59  CB        -0.0080   69.8960   24.1060 C.3   568  PHE568      0.0534
     60  CG         0.9200   70.0800   25.2750 C.ar  568  PHE568     -0.0203
     61  CD1        1.0070   71.3080   25.9040 C.ar  568  PHE568     -0.0042
     62  CD2        1.7130   69.0360   25.7460 C.ar  568  PHE568     -0.0042
     63  CE1        1.8620   71.4780   26.9780 C.ar  568  PHE568     -0.0003
     64  CE2        2.5610   69.2070   26.8240 C.ar  568  PHE568     -0.0003
     65  CZ         2.6400   70.4310   27.4360 C.ar  568  PHE568     -0.0000
     66  N          4.9840   68.4170   32.0070 N.3   607  LYS607     -0.1231
     67  CA         5.4990   67.3170   31.1830 C.3   607  LYS607      0.1693
     68  C          4.5360   66.1240   31.1420 C.2   607  LYS607      0.2593
     69  O          4.2480   65.5660   30.0890 O.2   607  LYS607     -0.2718
     70  CB         6.8570   66.8770   31.7210 C.3   607  LYS607      0.0285
     71  CG         8.1000   67.0770   30.9090 C.3   607  LYS607      0.0035
     72  CD         9.0290   65.8780   30.8110 C.3   607  LYS607      0.0206
     73  CE        10.1660   65.8270   31.8220 C.3   607  LYS607      0.1093
     74  NZ        11.3620   66.6300   31.4780 N.3   607  LYS607     -0.1314
     75  N          4.0010   65.7090   32.2800 N.am  608  THR608     -0.1939
     76  CA         3.1230   64.5840   32.4550 C.3   608  THR608      0.2028
     77  C          1.7280   64.7770   31.8770 C.2   608  THR608      0.2642
     78  O          1.3520   64.0310   30.9720 O.2   608  THR608     -0.2714
     79  CB         2.9710   64.2480   33.9610 C.3   608  THR608      0.1808
     80  OG1        4.1990   63.7180   34.4870 O.3   608  THR608     -0.2208
     81  CG2        1.8080   63.2950   34.2040 C.3   608  THR608      0.0379
     82  N          0.9220   65.6950   32.3930 N.am  609  HIS609     -0.1959
     83  CA        -0.4440   65.9070   31.9550 C.3   609  HIS609      0.1787
     84  C         -0.6390   66.9870   30.9090 C.2   609  HIS609      0.2620
     85  O         -1.7630   67.1990   30.4370 O.2   609  HIS609     -0.2715
     86  CB        -1.3420   66.2470   33.1530 C.3   609  HIS609      0.0785
     87  CG        -1.0480   65.4610   34.3940 C.ar  609  HIS609      0.0821
     88  ND1       -1.7050   64.2940   34.7220 N.ar  609  HIS609     -0.2267
     89  CD2       -0.1830   65.6980   35.4080 C.ar  609  HIS609      0.1154
     90  CE1       -1.2120   63.8570   35.8640 C.ar  609  HIS609      0.1986
     91  NE2       -0.2810   64.6800   36.3080 N.ar  609  HIS609     -0.2212
     92  N          0.4030   67.7050   30.5210 N.am  610  GLY610     -0.1954
     93  CA         0.3400   68.7120   29.4800 C.3   610  GLY610      0.1869
     94  C         -0.4190   69.9780   29.8390 C.2   610  GLY610      0.2309
     95  O         -0.7990   70.2270   30.9830 O.2   610  GLY610     -0.2863
@<TRIPOS>BOND
     1    52    53    1
     2    52    49    1
     3    53    54    1
     4    51    50    2
     5    50    49    1
     6    49    48    1
     7    54    48    1
     8    48    44   am
     9    55    56    1
    10    44    45    2
    11    44    43    1
    12    57    56    1
    13    57    58    2
    14    56    59    1
    15    46    43    1
    16    46    47    1
    17    43    42    1
    18    59    60    1
    19    40    39    2
    20    42    39   am
    21    39    38    1
    22    60    62   ar
    23    60    61   ar
    24    62    64   ar
    25    61    63   ar
    26    41    38    1
    27    38    37    1
    28    64    65   ar
    29    63    65   ar
    30    36    35    2
    31    37    35   am
    32    35    34    1
    33    27    26    2
    34    34    33    1
    35    26    33   am
    36    26    25    1
    37    31    30    2
    38    28    25    1
    39    28    29    1
    40    93    94    1
    41    93    92    1
    42    25    24    1
    43    94    95    2
    44    69    68    2
    45    30    29    1
    46    30    32   am
    47    85    84    2
    48     5     2    1
    49    92    84   am
    50    72    71    1
    51    72    73    1
    52     2     3    1
    53     2     1    1
    54    84    83    1
    55    71    70    1
    56     4     3    2
    57    78    77    2
    58    68    67    1
    59    68    75   am
    60    24    17   am
    61    67    70    1
    62    67    66    1
    63    74    73    1
    64     3     6   am
    65    77    82   am
    66    77    76    1
    67    83    82    1
    68    83    86    1
    69    18    17    2
    70    17    16    1
    71    75    76    1
    72    76    79    1
    73     6     7    1
    74     9     8    2
    75    86    87    1
    76     8     7    1
    77     8    15   am
    78    16    15    1
    79    16    19    1
    80     7    10    1
    81    79    81    1
    82    79    80    1
    83    20    19    1
    84    20    21    1
    85    23    21   ar
    86    87    88   ar
    87    87    89   ar
    88    88    90   ar
    89    21    22   ar
    90    10    11    1
    91    89    91   ar
    92    11    12    1
    93    90    91   ar
    94    12    13    1
    95    13    14    1
