@<TRIPOS>MOLECULE
tmp/6tmnA00.pdb
 202 198 0 0 0
SMALL
GASTEIGER

@<TRIPOS>ATOM
      1  N         45.3000   13.2410    1.1810 N.3   111  ASN111     -0.1225
      2  CA        46.7520   13.3100    1.3990 C.3   111  ASN111      0.1785
      3  C         47.5040   14.0800    0.3260 C.2   111  ASN111      0.2597
      4  O         48.4460   13.5390   -0.2420 O.2   111  ASN111     -0.2718
      5  CB        47.4150   11.8910    1.6300 C.3   111  ASN111      0.1169
      6  CG        47.0340   11.3630    2.9950 C.2   111  ASN111      0.2627
      7  OD1       47.0090   11.9990    4.0540 O.2   111  ASN111     -0.2716
      8  ND2       46.7160   10.0770    2.9560 N.am  111  ASN111     -0.0877
      9  N         47.0470   15.2920   -0.0310 N.am  112  ASN112     -0.1960
     10  CA        47.7970   16.0280   -1.0140 C.3   112  ASN112      0.1819
     11  C         47.3480   17.4960   -0.9680 C.2   112  ASN112      0.2621
     12  O         46.4500   17.8580   -0.1480 O.2   112  ASN112     -0.2715
     13  CB        47.5740   15.4220   -2.3960 C.3   112  ASN112      0.1195
     14  CG        48.7770   15.5080   -3.3320 C.2   112  ASN112      0.2630
     15  OD1       49.7320   16.2660   -3.2710 O.2   112  ASN112     -0.2716
     16  ND2       48.8230   14.6740   -4.3290 N.am  112  ASN112     -0.0877
     17  N         47.9740   18.3050   -1.8390 N.am  113  ALA113     -0.1963
     18  CA        47.7050   19.7260   -2.0150 C.3   113  ALA113      0.1728
     19  C         47.9770   19.9790   -3.4840 C.2   113  ALA113      0.2616
     20  O         48.8020   19.2970   -4.0650 O.2   113  ALA113     -0.2715
     21  CB        48.5020   20.6770   -1.1190 C.3   113  ALA113      0.0334
     22  N         47.3650   20.9450   -4.1640 N.am  114  PHE114     -0.1960
     23  CA        47.6040   21.2840   -5.5410 C.3   114  PHE114      0.1771
     24  C         47.0850   22.6750   -5.9000 C.2   114  PHE114      0.2620
     25  O         46.2430   23.2350   -5.2340 O.2   114  PHE114     -0.2715
     26  CB        46.9590   20.2560   -6.5000 C.3   114  PHE114      0.0574
     27  CG        45.4390   19.9770   -6.3630 C.ar  114  PHE114     -0.0200
     28  CD1       44.5280   20.5310   -7.2740 C.ar  114  PHE114     -0.0042
     29  CD2       44.9080   19.2070   -5.3290 C.ar  114  PHE114     -0.0042
     30  CE1       43.1710   20.2270   -7.1640 C.ar  114  PHE114     -0.0003
     31  CE2       43.5470   18.8520   -5.2130 C.ar  114  PHE114     -0.0003
     32  CZ        42.6720   19.4130   -6.1350 C.ar  114  PHE114     -0.0000
     33  N         47.6400   23.1350   -7.0180 N.am  115  TRP115     -0.1960
     34  CA        47.2720   24.2930   -7.7920 C.3   115  TRP115      0.1771
     35  C         46.3930   23.7430   -8.9180 C.2   115  TRP115      0.2620
     36  O         46.8930   22.9050   -9.6370 O.2   115  TRP115     -0.2715
     37  CB        48.4860   25.0600   -8.3180 C.3   115  TRP115      0.0590
     38  CG        48.1060   26.0880   -9.3200 C.ar  115  TRP115      0.0006
     39  CD1       48.3470   26.0100  -10.6510 C.ar  115  TRP115      0.0946
     40  CD2       47.6230   27.4010   -9.0800 C.ar  115  TRP115      0.0152
     41  NE1       47.9450   27.1140  -11.3460 N.ar  115  TRP115     -0.2442
     42  CE2       47.5160   28.0240  -10.3620 C.ar  115  TRP115      0.0810
     43  CE3       47.2920   28.1030   -7.9130 C.ar  115  TRP115      0.0012
     44  CZ2       47.0290   29.3750  -10.4420 C.ar  115  TRP115      0.0191
     45  CZ3       46.8640   29.4410   -8.0040 C.ar  115  TRP115      0.0001
     46  CH2       46.6270   29.9800   -9.2760 C.ar  115  TRP115      0.0015
     47  N         45.1040   24.1290   -9.0340 N.am  116  ASN116     -0.1958
     48  CA        44.2370   23.5950  -10.0490 C.3   116  ASN116      0.1819
     49  C         44.2080   24.4010  -11.3290 C.2   116  ASN116      0.2621
     50  O         43.2320   24.2020  -12.0820 O.2   116  ASN116     -0.2715
     51  CB        42.8490   23.2750   -9.4630 C.3   116  ASN116      0.1195
     52  CG        41.9420   24.5020   -9.4400 C.2   116  ASN116      0.2630
     53  OD1       42.4360   25.5970   -9.5680 O.2   116  ASN116     -0.2716
     54  ND2       40.6600   24.3410   -9.2140 N.am  116  ASN116     -0.0877
     55  N         45.1550   25.3280  -11.5940 N.am  117  GLY117     -0.1954
     56  CA        45.0430   26.1380  -12.8150 C.3   117  GLY117      0.1869
     57  C         44.5020   27.5730  -12.4330 C.2   117  GLY117      0.2309
     58  O         44.7740   28.6020  -13.0770 O.2   117  GLY117     -0.2863
     59  N         49.4870    9.6580    7.6880 N.3   129  THR129     -0.1203
     60  CA        50.4630    9.9890    6.6990 C.3   129  THR129      0.1994
     61  C         50.6720   11.5210    6.7420 C.2   129  THR129      0.2617
     62  O         51.8010   11.9580    6.5490 O.2   129  THR129     -0.2717
     63  CB        50.0200    9.5190    5.2800 C.3   129  THR129      0.1784
     64  OG1       49.3440    8.2600    5.4400 O.3   129  THR129     -0.2211
     65  CG2       51.1150    9.7320    4.1730 C.3   129  THR129      0.0376
     66  N         49.6270   12.3690    6.9390 N.am  130  PHE130     -0.1975
     67  CA        49.7970   13.8040    6.9170 C.3   130  PHE130      0.1639
     68  C         48.7850   14.3270    7.8660 C.2   130  PHE130      0.2290
     69  O         47.7700   13.6720    8.0840 O.2   130  PHE130     -0.2864
     70  CB        49.3280   14.3010    5.5410 C.3   130  PHE130      0.0560
     71  CG        50.4100   14.3900    4.5290 C.ar  130  PHE130     -0.0200
     72  CD1       50.3660   13.5160    3.4610 C.ar  130  PHE130     -0.0042
     73  CD2       51.4040   15.3820    4.5900 C.ar  130  PHE130     -0.0042
     74  CE1       51.3590   13.5350    2.4690 C.ar  130  PHE130     -0.0003
     75  CE2       52.3880   15.4140    3.6150 C.ar  130  PHE130     -0.0003
     76  CZ        52.3590   14.4940    2.5570 C.ar  130  PHE130     -0.0000
     77  N         47.6170   19.8800    5.2150 N.3   133  LEU133     -0.1245
     78  CA        48.7740   20.2950    4.4680 C.3   133  LEU133      0.1561
     79  C         49.2610   21.7510    4.4870 C.2   133  LEU133      0.2260
     80  O         50.4460   22.0530    4.3010 O.2   133  LEU133     -0.2867
     81  CB        48.7150   19.6740    3.0920 C.3   133  LEU133      0.0270
     82  CG        48.9590   18.1350    3.2160 C.3   133  LEU133      0.0019
     83  CD1       47.7270   17.2740    3.5730 C.3   133  LEU133      0.0001
     84  CD2       49.5820   17.8520    1.8790 C.3   133  LEU133      0.0001
     85  N         55.2350   23.7380    1.8040 N.3   139  VAL139     -0.1245
     86  CA        54.0540   23.1630    1.0500 C.3   139  VAL139      0.1561
     87  C         53.2380   24.3400    0.3430 C.2   139  VAL139      0.2260
     88  O         53.0070   24.3280   -0.9040 O.2   139  VAL139     -0.2867
     89  CB        53.1260   22.3290    2.0020 C.3   139  VAL139      0.0252
     90  CG1       51.8740   21.9240    1.2220 C.3   139  VAL139      0.0019
     91  CG2       53.9670   21.1170    2.4890 C.3   139  VAL139      0.0019
     92  N         55.3450   25.9920   -2.1490 N.3   142  HIS142     -0.1226
     93  CA        55.5130   25.0520   -3.3310 C.3   142  HIS142      0.1752
     94  C         54.3080   25.2360   -4.3120 C.2   142  HIS142      0.2595
     95  O         54.4320   25.3180   -5.5620 O.2   142  HIS142     -0.2718
     96  CB        55.6470   23.6230   -2.7340 C.3   142  HIS142      0.0759
     97  CG        55.6930   22.4830   -3.7420 C.ar  142  HIS142      0.0818
     98  ND1       56.8490   21.7210   -4.0140 N.ar  142  HIS142     -0.2268
     99  CD2       54.6590   22.0310   -4.5190 C.ar  142  HIS142      0.1154
    100  CE1       56.5210   20.9100   -5.0230 C.ar  142  HIS142      0.1986
    101  NE2       55.1890   20.9920   -5.2960 N.ar  142  HIS142     -0.2212
    102  N         53.1070   25.3020   -3.6260 N.am  143  GLU143     -0.1979
    103  CA        51.7920   25.4950   -4.3070 C.3   143  GLU143      0.1602
    104  C         51.6730   26.7870   -5.1510 C.2   143  GLU143      0.2287
    105  O         51.4280   26.7830   -6.3970 O.2   143  GLU143     -0.2864
    106  CB        50.5920   25.2050   -3.4010 C.3   143  GLU143      0.0415
    107  CG        50.4790   23.7540   -2.8260 C.3   143  GLU143      0.1163
    108  CD        50.6500   22.6740   -3.8880 C.2   143  GLU143      0.3649
    109  OE1       50.4460   22.7590   -5.0790 O.co2 143  GLU143     -0.2457
    110  OE2       51.2030   21.6220   -3.4390 O.co2 143  GLU143     -0.2457
    111  N         53.8210   26.8960   -8.1130 N.3   146  HIS146     -0.1241
    112  CA        53.3140   26.3060   -9.3580 C.3   146  HIS146      0.1621
    113  C         52.5420   27.3930  -10.1630 C.2   146  HIS146      0.2264
    114  O         52.5780   27.3410  -11.4330 O.2   146  HIS146     -0.2867
    115  CB        52.2780   25.2320   -8.9420 C.3   146  HIS146      0.0745
    116  CG        52.9400   23.8720   -8.7740 C.ar  146  HIS146      0.0817
    117  ND1       53.8030   23.2830   -9.7330 N.ar  146  HIS146     -0.2268
    118  CD2       52.9290   23.0500   -7.6990 C.ar  146  HIS146      0.1154
    119  CE1       54.2400   22.0930   -9.2890 C.ar  146  HIS146      0.1986
    120  NE2       53.7120   21.9340   -8.0590 N.ar  146  HIS146     -0.2212
    121  N         53.8260   19.6290  -17.4030 N.3   157  TYR157     -0.1241
    122  CA        53.9350   18.7320  -16.2710 C.3   157  TYR157      0.1605
    123  C         54.1530   17.2670  -16.5930 C.2   157  TYR157      0.2264
    124  O         53.3720   16.3770  -16.2430 O.2   157  TYR157     -0.2867
    125  CB        52.7250   18.9080  -15.3480 C.3   157  TYR157      0.0534
    126  CG        52.9820   18.6110  -13.8880 C.ar  157  TYR157     -0.0201
    127  CD1       52.2060   17.6350  -13.2810 C.ar  157  TYR157     -0.0009
    128  CD2       53.9320   19.2800  -13.1100 C.ar  157  TYR157     -0.0009
    129  CE1       52.3440   17.4560  -11.8950 C.ar  157  TYR157      0.0417
    130  CE2       54.0740   19.1320  -11.7330 C.ar  157  TYR157      0.0417
    131  CZ        53.3230   18.1000  -11.1630 C.ar  157  TYR157      0.1957
    132  OH        53.3610   17.8440   -9.8420 O.3   157  TYR157     -0.2866
    133  N         58.5570   20.7010  -10.7740 N.3   166  GLU166     -0.1245
    134  CA        58.5430   20.2820   -9.3290 C.3   166  GLU166      0.1567
    135  C         59.7360   20.8750   -8.5370 C.2   166  GLU166      0.2260
    136  O         59.6300   21.3420   -7.4030 O.2   166  GLU166     -0.2867
    137  CB        58.6250   18.6990   -9.3170 C.3   166  GLU166      0.0388
    138  CG        57.1780   18.1530   -9.3990 C.3   166  GLU166      0.1160
    139  CD        56.3320   18.8180   -8.3500 C.2   166  GLU166      0.3649
    140  OE1       55.2490   19.3780   -8.5950 O.co2 166  GLU166     -0.2457
    141  OE2       56.7690   18.6580   -7.1040 O.co2 166  GLU166     -0.2457
    142  N         61.6470   18.7530    2.5090 N.3   188  ILE188     -0.1231
    143  CA        60.3010   19.1210    2.0590 C.3   188  ILE188      0.1692
    144  C         59.1360   18.4840    2.8640 C.2   188  ILE188      0.2592
    145  O         59.0260   17.2510    2.8550 O.2   188  ILE188     -0.2718
    146  CB        60.0550   18.9570    0.5170 C.3   188  ILE188      0.0266
    147  CG1       61.1490   19.7020   -0.2700 C.3   188  ILE188      0.0019
    148  CG2       58.5930   19.2840    0.0270 C.3   188  ILE188      0.0020
    149  CD1       61.0250   21.2250   -0.0460 C.3   188  ILE188      0.0001
    150  N         58.3440   19.2780    3.6580 N.am  189  GLY189     -0.1957
    151  CA        57.0810   18.7780    4.1180 C.3   189  GLY189      0.1869
    152  C         57.2100   18.1970    5.4890 C.2   189  GLY189      0.2309
    153  O         56.2550   17.6240    6.0040 O.2   189  GLY189     -0.2863
    154  N         54.2200   15.9510    7.5830 N.3   193  TYR193     -0.1241
    155  CA        54.3210   14.5420    7.1870 C.3   193  TYR193      0.1605
    156  C         54.5050   13.6460    8.4170 C.2   193  TYR193      0.2264
    157  O         55.2140   14.0520    9.3380 O.2   193  TYR193     -0.2867
    158  CB        55.4790   14.4870    6.1970 C.3   193  TYR193      0.0534
    159  CG        55.7240   13.1350    5.6430 C.ar  193  TYR193     -0.0201
    160  CD1       54.7540   12.6600    4.7850 C.ar  193  TYR193     -0.0009
    161  CD2       56.9550   12.4840    5.8000 C.ar  193  TYR193     -0.0009
    162  CE1       54.9210   11.4160    4.1680 C.ar  193  TYR193      0.0417
    163  CE2       57.1110   11.2270    5.2130 C.ar  193  TYR193      0.0417
    164  CZ        56.1180   10.7290    4.3730 C.ar  193  TYR193      0.1957
    165  OH        56.2170    9.5390    3.6980 O.3   193  TYR193     -0.2866
    166  N         59.0930   14.3710    3.2730 N.3   202  LEU202     -0.1231
    167  CA        58.6010   13.7580    2.0700 C.3   202  LEU202      0.1693
    168  C         59.7340   13.5580    1.0560 C.2   202  LEU202      0.2591
    169  O         59.7680   12.5530    0.3070 O.2   202  LEU202     -0.2718
    170  CB        57.4330   14.6940    1.6210 C.3   202  LEU202      0.0284
    171  CG        56.8250   14.3490    0.3470 C.3   202  LEU202      0.0019
    172  CD1       56.0470   13.1170    0.7880 C.3   202  LEU202      0.0001
    173  CD2       55.7160   15.4390    0.2970 C.3   202  LEU202      0.0001
    174  N         60.5920   14.6020    0.9310 N.am  203  ARG203     -0.1980
    175  CA        61.7090   14.6250   -0.0050 C.3   203  ARG203      0.1597
    176  C         62.8030   15.4110    0.7020 C.2   203  ARG203      0.2287
    177  O         62.5220   16.2110    1.6350 O.2   203  ARG203     -0.2864
    178  CB        61.5120   15.3940   -1.2910 C.3   203  ARG203      0.0334
    179  CG        60.5140   14.7070   -2.1730 C.3   203  ARG203      0.0492
    180  CD        60.4160   15.4820   -3.4830 C.3   203  ARG203      0.2205
    181  NE        59.5450   16.6780   -3.4280 N.pl3 203  ARG203     -0.0865
    182  CZ        58.1590   16.7030   -3.4270 C.cat 203  ARG203      0.5346
    183  NH1       57.4330   15.5740   -3.3500 N.pl3 203  ARG203      0.1354
    184  NH2       57.4850   17.8940   -3.5510 N.pl3 203  ARG203      0.1354
    185  N         53.8850    8.6500  -12.3760 N.3   226  ASP226     -0.1239
    186  CA        54.0970   10.0030  -11.8360 C.3   226  ASP226      0.1674
    187  C         54.4320   10.9860  -12.9010 C.2   226  ASP226      0.2266
    188  O         55.3160   11.8060  -12.8400 O.2   226  ASP226     -0.2867
    189  CB        55.1390    9.9710  -10.7270 C.3   226  ASP226      0.1410
    190  CG        55.3240   11.3370  -10.1640 C.2   226  ASP226      0.3668
    191  OD1       54.4780   12.1410   -9.9340 O.co2 226  ASP226     -0.2456
    192  OD2       56.5040   11.5250   -9.7480 O.co2 226  ASP226     -0.2456
    193  N         57.9440   13.9260   -9.7260 N.3   231  HIS231     -0.1241
    194  CA        58.2660   14.0270   -8.3090 C.3   231  HIS231      0.1621
    195  C         59.5440   13.2320   -7.8690 C.2   231  HIS231      0.2264
    196  O         59.9970   13.2740   -6.6950 O.2   231  HIS231     -0.2867
    197  CB        57.1620   13.7820   -7.2320 C.3   231  HIS231      0.0745
    198  CG        55.9590   14.6300   -7.4030 C.ar  231  HIS231      0.0817
    199  ND1       54.9330   14.2750   -8.2920 N.ar  231  HIS231     -0.2268
    200  CD2       55.6160   15.7630   -6.7730 C.ar  231  HIS231      0.1154
    201  CE1       53.9900   15.2270   -8.2570 C.ar  231  HIS231      0.1986
    202  NE2       54.3880   16.1050   -7.3360 N.ar  231  HIS231     -0.2212
@<TRIPOS>BOND
     1   121   122    1
     2   123   122    1
     3   123   124    2
     4   122   125    1
     5   125   126    1
     6   126   127   ar
     7   126   128   ar
     8   127   129   ar
     9   128   130   ar
    10    58    57    2
    11   187   188    2
    12   187   186    1
    13    56    57    1
    14    56    55    1
    15   185   186    1
    16    50    49    2
    17   129   131   ar
    18   186   189    1
    19   130   131   ar
    20    55    49   am
    21   114   113    2
    22    41    39   ar
    23    41    42   ar
    24    49    48    1
    25   131   132    1
    26   133   134    1
    27   189   190    1
    28    39    38   ar
    29    44    42   ar
    30    44    46   ar
    31    42    40   ar
    32   190   191   ar
    33   190   192   ar
    34   113   112    1
    35    48    51    1
    36    48    47    1
    37   117   119   ar
    38   117   116   ar
    39   193   194    1
    40    36    35    2
    41    53    52    2
    42    51    52    1
    43    52    54   am
    44   138   137    1
    45   138   139    1
    46   112   115    1
    47   112   111    1
    48   134   137    1
    49   134   135    1
    50    38    40   ar
    51    38    37    1
    52   119   120   ar
    53    46    45   ar
    54    40    43   ar
    55    47    35   am
    56   115   116    1
    57    35    34    1
    58   116   118   ar
    59   140   139   ar
    60   135   136    2
    61   139   141   ar
    62    37    34    1
    63   194   195    1
    64   194   197    1
    65   199   201   ar
    66   199   198   ar
    67   201   202   ar
    68   120   118   ar
    69    45    43   ar
    70   195   196    2
    71    34    33    1
    72   198   197    1
    73   198   200   ar
    74   202   200   ar
    75    28    30   ar
    76    28    27   ar
    77    30    32   ar
    78    33    24   am
    79    26    27    1
    80    26    23    1
    81   105   104    2
    82    27    29   ar
    83    32    31   ar
    84    24    23    1
    85    24    25    2
    86    95    94    2
    87    23    22    1
    88    29    31   ar
    89   101   100   ar
    90   101    99   ar
    91   104   103    1
    92   109   108   ar
    93   100    98   ar
    94    99    97   ar
    95    16    14   am
    96    94   102   am
    97    94    93    1
    98   103   102    1
    99   103   106    1
   100    22    19   am
   101    20    19    2
   102    98    97   ar
   103   108   110   ar
   104   108   107    1
   105    97    96    1
   106   184   182    1
   107    19    18    1
   108   180   181    1
   109   180   179    1
   110   181   182    2
   111   182   183    1
   112   106   107    1
   113    14    15    2
   114    14    13    1
   115    93    96    1
   116    93    92    1
   117    13    10    1
   118   179   178    1
   119    18    17    1
   120    18    21    1
   121    17    11   am
   122   178   175    1
   123    10    11    1
   124    10     9    1
   125    11    12    2
   126    88    87    2
   127   147   149    1
   128   147   146    1
   129     4     3    2
   130     9     3   am
   131   175   176    1
   132   175   174    1
   133   148   146    1
   134   173   171    1
   135   169   168    2
   136     3     2    1
   137    87    86    1
   138   171   172    1
   139   171   170    1
   140   146   143    1
   141   176   177    2
   142   174   168   am
   143    86    85    1
   144    86    89    1
   145   168   167    1
   146     1     2    1
   147    90    89    1
   148     2     5    1
   149   170   167    1
   150     5     6    1
   151    84    82    1
   152    89    91    1
   153   143   142    1
   154   143   144    1
   155   167   166    1
   156    74    76   ar
   157    74    72   ar
   158    76    75   ar
   159   145   144    2
   160   144   150   am
   161     8     6   am
   162     6     7    2
   163    81    82    1
   164    81    78    1
   165    82    83    1
   166    72    71   ar
   167    75    73   ar
   168   150   151    1
   169   165   164    1
   170   151   152    1
   171   162   164   ar
   172   162   160   ar
   173    65    63    1
   174    80    79    2
   175   164   163   ar
   176    78    79    1
   177    78    77    1
   178    71    73   ar
   179    71    70    1
   180   160   159   ar
   181   163   161   ar
   182    63    64    1
   183    63    60    1
   184   152   153    2
   185    70    67    1
   186   159   161   ar
   187   159   158    1
   188   158   155    1
   189    62    61    2
   190    60    61    1
   191    60    59    1
   192    61    66   am
   193    67    66    1
   194    67    68    1
   195   155   154    1
   196   155   156    1
   197    68    69    2
   198   156   157    2
