@<TRIPOS>MOLECULE
tmp/6upjA00.pdb
 75 69 0 0 0
SMALL
GASTEIGER

@<TRIPOS>ATOM
      1  N         12.6460   15.0220   17.9880 N.3     8  ARG8       -0.1245
      2  CA        11.8930   15.6670   19.0580 C.3     8  ARG8        0.1563
      3  C         12.7540   16.4120   20.0530 C.2     8  ARG8        0.2260
      4  O         13.6770   15.8520   20.6330 O.2     8  ARG8       -0.2867
      5  CB        10.9980   14.6530   19.7690 C.3     8  ARG8        0.0307
      6  CG         9.9400   14.0980   18.8180 C.3     8  ARG8        0.0489
      7  CD         9.5020   12.6820   19.1590 C.3     8  ARG8        0.2205
      8  NE         8.4650   12.6970   20.1700 N.pl3   8  ARG8       -0.0865
      9  CZ         7.2780   12.1250   20.0280 C.cat   8  ARG8        0.5346
     10  NH1        6.9850   11.4770   18.9060 N.pl3   8  ARG8        0.1354
     11  NH2        6.3780   12.2410   21.0040 N.pl3   8  ARG8        0.1354
     12  N          9.0050   17.4230   26.2810 N.3    23  LEU23      -0.1245
     13  CA         9.1320   17.8610   24.8970 C.3    23  LEU23       0.1561
     14  C          8.6430   19.3120   24.8360 C.2    23  LEU23       0.2260
     15  O          7.5070   19.6110   25.2260 O.2    23  LEU23      -0.2867
     16  CB         8.2390   16.9590   24.0460 C.3    23  LEU23       0.0270
     17  CG         7.7780   17.1360   22.6070 C.3    23  LEU23       0.0019
     18  CD1        8.8160   16.6370   21.6280 C.3    23  LEU23       0.0001
     19  CD2        6.5020   16.3160   22.4690 C.3    23  LEU23       0.0001
     20  N          6.9490   22.2470   23.4800 N.3    25  ASP25      -0.1239
     21  CA         5.8290   22.4240   22.5420 C.3    25  ASP25       0.1674
     22  C          5.4640   23.9020   22.2750 C.2    25  ASP25       0.2266
     23  O          4.8940   24.5610   23.1400 O.2    25  ASP25      -0.2867
     24  CB         4.6280   21.6830   23.1410 C.3    25  ASP25       0.1410
     25  CG         3.5240   21.4080   22.1490 C.2    25  ASP25       0.3668
     26  OD1        3.1230   22.3000   21.3940 O.co2  25  ASP25      -0.2456
     27  OD2        2.9980   20.2790   22.1770 O.co2  25  ASP25      -0.2456
     28  N          3.1420   25.0130   20.2950 N.3    27  GLY27      -0.1210
     29  CA         1.7510   25.2230   19.9260 C.3    27  GLY27       0.1956
     30  C          0.7880   25.2280   21.1020 C.2    27  GLY27       0.2611
     31  O         -0.3630   25.6270   20.9690 O.2    27  GLY27      -0.2717
     32  N          1.2690   24.7750   22.2530 N.am   28  ALA28      -0.1979
     33  CA         0.4770   24.6960   23.4740 C.3    28  ALA28       0.1597
     34  C          0.6190   25.9780   24.2920 C.2    28  ALA28       0.2287
     35  O          1.6960   26.5850   24.3410 O.2    28  ALA28      -0.2864
     36  CB         0.9340   23.5000   24.3010 C.3    28  ALA28       0.0319
     37  N         -8.2470   20.6210   27.0530 N.3    48  GLY48      -0.1210
     38  CA        -8.6490   20.0590   25.7840 C.3    48  GLY48       0.1956
     39  C         -7.4400   19.7260   24.9350 C.2    48  GLY48       0.2612
     40  O         -6.6060   20.5950   24.6710 O.2    48  GLY48      -0.2717
     41  N         -7.3080   18.4630   24.5530 N.am   49  GLY49      -0.1942
     42  CA        -6.1890   18.0810   23.7290 C.3    49  GLY49       0.2014
     43  C         -6.6580   18.0180   22.2990 C.2    49  GLY49       0.2638
     44  O         -7.7930   18.4080   21.9900 O.2    49  GLY49      -0.2714
     45  N         -5.7910   17.5000   21.4310 N.am   50  ILE50      -0.1977
     46  CA        -6.0930   17.3530   20.0330 C.3    50  ILE50       0.1596
     47  C         -7.0650   16.2040   19.8370 C.2    50  ILE50       0.2287
     48  O         -7.8430   16.1930   18.8860 O.2    50  ILE50      -0.2864
     49  CB        -4.8130   17.0750   19.2350 C.3    50  ILE50       0.0276
     50  CG1       -4.9540   17.6180   17.8150 C.3    50  ILE50       0.0022
     51  CG2       -4.4850   15.5870   19.2190 C.3    50  ILE50       0.0022
     52  CD1       -4.9940   19.1300   17.7420 C.3    50  ILE50       0.0001
     53  N         -0.3190   11.2800   27.9120 N.3    81  PRO81      -0.2102
     54  CA         0.5300   10.2990   27.2350 C.3    81  PRO81       0.1504
     55  C          1.8710   10.8820   26.7760 C.2    81  PRO81       0.2575
     56  O          2.7380   10.1620   26.2990 O.2    81  PRO81      -0.2718
     57  CB        -0.3540    9.8370   26.0760 C.3    81  PRO81       0.0282
     58  CG        -1.1150   11.0590   25.7360 C.3    81  PRO81       0.0208
     59  CD        -1.4990   11.6120   27.0970 C.3    81  PRO81       0.0893
     60  N          2.0420   12.1900   26.9330 N.am   82  ILE82      -0.1980
     61  CA         3.2880   12.8590   26.5720 C.3    82  ILE82       0.1595
     62  C          3.4210   14.0910   27.4950 C.2    82  ILE82       0.2287
     63  O          2.4220   14.7350   27.8210 O.2    82  ILE82      -0.2864
     64  CB         3.3430   13.2060   25.0240 C.3    82  ILE82       0.0276
     65  CG1        4.7570   12.9640   24.4510 C.3    82  ILE82       0.0022
     66  CG2        2.8620   14.6240   24.7280 C.3    82  ILE82       0.0022
     67  CD1        5.8820   13.8220   25.0450 C.3    82  ILE82       0.0001
     68  N          4.6450   17.7760   28.3090 N.3    84  ILE84      -0.1245
     69  CA         4.9750   18.9730   27.5340 C.3    84  ILE84       0.1561
     70  C          5.1590   20.2420   28.3680 C.2    84  ILE84       0.2260
     71  O          4.5960   20.3920   29.4680 O.2    84  ILE84      -0.2867
     72  CB         3.9240   19.3010   26.4130 C.3    84  ILE84       0.0252
     73  CG1        2.5350   19.5140   27.0200 C.3    84  ILE84       0.0019
     74  CG2        3.9270   18.2330   25.3240 C.3    84  ILE84       0.0019
     75  CD1        1.6160   20.4080   26.1810 C.3    84  ILE84       0.0001
@<TRIPOS>BOND
     1    52    50    1
     2    50    49    1
     3     1     2    1
     4     6     7    1
     5     6     5    1
     6    48    47    2
     7    10     9    1
     8     2     5    1
     9     2     3    1
    10     7     8    1
    11    51    49    1
    12    49    46    1
    13    47    46    1
    14    29    28    1
    15    29    30    1
    16     9     8    2
    17     9    11    1
    18    46    45    1
    19     3     4    2
    20    31    30    2
    21    30    32   am
    22    26    25   ar
    23    45    43   am
    24    18    17    1
    25    44    43    2
    26    25    27   ar
    27    25    24    1
    28    32    33    1
    29    22    21    1
    30    22    23    2
    31    43    42    1
    32    19    17    1
    33    21    24    1
    34    21    20    1
    35    17    16    1
    36    33    34    1
    37    33    36    1
    38    42    41    1
    39    16    13    1
    40    34    35    2
    41    65    64    1
    42    65    67    1
    43    41    39   am
    44    40    39    2
    45    66    64    1
    46    14    13    1
    47    14    15    2
    48    13    12    1
    49    39    38    1
    50    64    61    1
    51    74    72    1
    52    58    57    1
    53    58    59    1
    54    38    37    1
    55    57    54    1
    56    75    73    1
    57    56    55    2
    58    72    73    1
    59    72    69    1
    60    61    60    1
    61    61    62    1
    62    55    60   am
    63    55    54    1
    64    59    53    1
    65    54    53    1
    66    62    63    2
    67    69    68    1
    68    69    70    1
    69    70    71    2
