@<TRIPOS>MOLECULE
tmp/7aatB00.pdb
 135 129 0 0 0
SMALL
GASTEIGER

@<TRIPOS>ATOM
      1  N         13.0580   10.9720   29.6750 N.3   104  SER104     -0.1202
      2  CA        13.0280   11.7670   30.9110 C.3   104  SER104      0.2020
      3  C         13.3390   10.7950   32.0570 C.2   104  SER104      0.2619
      4  O         13.8790    9.6920   31.8860 O.2   104  SER104     -0.2717
      5  CB        11.7330   12.5100   31.1100 C.3   104  SER104      0.2103
      6  OG        11.9480   13.8210   31.5770 O.3   104  SER104     -0.2182
      7  N         13.0000   11.2360   33.2420 N.am  105  GLY105     -0.1942
      8  CA        13.1680   10.5140   34.5020 C.3   105  GLY105      0.2014
      9  C         12.2860    9.2850   34.5660 C.2   105  GLY105      0.2639
     10  O         12.8250    8.2470   34.9930 O.2   105  GLY105     -0.2714
     11  N         11.0220    9.3550   34.1830 N.am  106  THR106     -0.1950
     12  CA        10.1520    8.1710   34.2450 C.3   106  THR106      0.1897
     13  C         10.6010    7.0420   33.3260 C.2   106  THR106      0.2313
     14  O         10.6570    5.8930   33.7860 O.2   106  THR106     -0.2863
     15  CB         8.6260    8.4740   33.9650 C.3   106  THR106      0.1794
     16  OG1        8.3500    9.6150   34.8010 O.3   106  THR106     -0.2208
     17  CG2        7.7720    7.2200   34.1380 C.3   106  THR106      0.0378
     18  N         13.6430    5.3410   34.8030 N.3   109  LEU109     -0.1245
     19  CA        13.2720    4.4790   35.9450 C.3   109  LEU109      0.1561
     20  C         12.7290    3.1310   35.4600 C.2   109  LEU109      0.2260
     21  O         13.0330    2.0600   36.0060 O.2   109  LEU109     -0.2867
     22  CB        12.2740    5.2660   36.8270 C.3   109  LEU109      0.0270
     23  CG        12.8020    6.2820   37.8210 C.3   109  LEU109      0.0019
     24  CD1       11.6700    7.1900   38.3020 C.3   109  LEU109      0.0001
     25  CD2       13.4690    5.5940   39.0170 C.3   109  LEU109      0.0001
     26  N          6.5320    8.8290   45.5930 N.3   133  TRP133     -0.1241
     27  CA         5.7860    9.3460   44.4270 C.3   133  TRP133      0.1605
     28  C          4.8950    8.2070   43.9730 C.2   133  TRP133      0.2264
     29  O          5.3340    7.0520   43.9110 O.2   133  TRP133     -0.2867
     30  CB         6.8200    9.7960   43.4060 C.3   133  TRP133      0.0550
     31  CG         6.3530   10.2480   42.0730 C.ar  133  TRP133      0.0003
     32  CD1        5.3080   11.0770   41.7780 C.ar  133  TRP133      0.0946
     33  CD2        6.9340    9.8630   40.8110 C.ar  133  TRP133      0.0152
     34  NE1        5.2110   11.2450   40.4090 N.ar  133  TRP133     -0.2442
     35  CE2        6.2030   10.5260   39.7980 C.ar  133  TRP133      0.0810
     36  CE3        7.9980    9.0430   40.4540 C.ar  133  TRP133      0.0012
     37  CZ2        6.5120   10.3860   38.4540 C.ar  133  TRP133      0.0191
     38  CZ3        8.3040    8.9060   39.1090 C.ar  133  TRP133      0.0001
     39  CH2        7.5700    9.5610   38.1340 C.ar  133  TRP133      0.0015
     40  N          5.9740    5.4840   41.3300 N.3   136  HIS136     -0.1241
     41  CA         6.9490    4.4920   41.7230 C.3   136  HIS136      0.1621
     42  C          6.3610    3.0940   41.7580 C.2   136  HIS136      0.2264
     43  O          7.0200    2.1650   41.2850 O.2   136  HIS136     -0.2867
     44  CB         7.7410    4.7520   43.0100 C.3   136  HIS136      0.0745
     45  CG         8.7890    5.8010   42.8030 C.ar  136  HIS136      0.0817
     46  ND1        9.2080    6.6720   43.7720 N.ar  136  HIS136     -0.2268
     47  CD2        9.5050    6.0810   41.6820 C.ar  136  HIS136      0.1154
     48  CE1       10.1420    7.4540   43.2350 C.ar  136  HIS136      0.1986
     49  NE2       10.3390    7.1100   41.9800 N.ar  136  HIS136     -0.2212
     50  N         15.4190    8.6000   47.1720 N.3   181  HIS181     -0.1241
     51  CA        15.2310    9.8920   46.4810 C.3   181  HIS181      0.1621
     52  C         16.5090   10.6720   46.8790 C.2   181  HIS181      0.2264
     53  O         16.8300   10.8510   48.0690 O.2   181  HIS181     -0.2867
     54  CB        13.9930   10.6740   46.9140 C.3   181  HIS181      0.0745
     55  CG        12.6560   10.0500   46.7160 C.ar  181  HIS181      0.0817
     56  ND1       11.5970   10.6890   46.1180 N.ar  181  HIS181     -0.2268
     57  CD2       12.1950    8.8350   47.0720 C.ar  181  HIS181      0.1154
     58  CE1       10.5460    9.8990   46.1120 C.ar  181  HIS181      0.1986
     59  NE2       10.8860    8.7570   46.6930 N.ar  181  HIS181     -0.2212
     60  N          9.6960   13.4210   47.1350 N.3   186  ASN186     -0.1240
     61  CA         8.3510   13.5980   46.5730 C.3   186  ASN186      0.1653
     62  C          7.5110   12.4300   47.0960 C.2   186  ASN186      0.2266
     63  O          7.9050   11.2700   46.8810 O.2   186  ASN186     -0.2867
     64  CB         8.4700   13.7240   45.0500 C.3   186  ASN186      0.1155
     65  CG         7.1420   13.6530   44.3440 C.2   186  ASN186      0.2627
     66  OD1        6.0550   13.6020   44.9490 O.2   186  ASN186     -0.2716
     67  ND2        7.1860   13.6300   43.0210 N.am  186  ASN186     -0.0877
     68  N         16.7370    7.8880   42.6900 N.3   214  ASP214     -0.1239
     69  CA        15.8280    8.6570   41.8250 C.3   214  ASP214      0.1674
     70  C         16.2610   10.1260   42.0320 C.2   214  ASP214      0.2266
     71  O         15.9930   10.6930   43.1100 O.2   214  ASP214     -0.2867
     72  CB        14.3620    8.4210   42.0970 C.3   214  ASP214      0.1410
     73  CG        13.4700    9.1630   41.1150 C.2   214  ASP214      0.3668
     74  OD1       14.0170    9.9370   40.3000 O.co2 214  ASP214     -0.2456
     75  OD2       12.2450    8.9850   41.1620 O.co2 214  ASP214     -0.2456
     76  N         15.6390   13.4400   40.3740 N.3   216  ALA216     -0.1231
     77  CA        14.8310   14.2950   39.5100 C.3   216  ALA216      0.1694
     78  C         14.9890   15.7790   39.7760 C.2   216  ALA216      0.2592
     79  O         14.4820   16.5550   38.9500 O.2   216  ALA216     -0.2718
     80  CB        13.3610   13.8990   39.6830 C.3   216  ALA216      0.0304
     81  N         15.6540   16.1590   40.8530 N.am  217  TYR217     -0.1976
     82  CA        15.7850   17.5680   41.2090 C.3   217  TYR217      0.1639
     83  C         17.1630   18.1210   41.4660 C.2   217  TYR217      0.2290
     84  O         17.2490   19.0660   42.2720 O.2   217  TYR217     -0.2864
     85  CB        14.8900   17.8280   42.4650 C.3   217  TYR217      0.0560
     86  CG        13.4610   17.4330   42.2220 C.ar  217  TYR217     -0.0198
     87  CD1       12.6090   18.2720   41.5170 C.ar  217  TYR217     -0.0009
     88  CD2       12.9580   16.2090   42.6560 C.ar  217  TYR217     -0.0009
     89  CE1       11.2830   17.9200   41.2560 C.ar  217  TYR217      0.0417
     90  CE2       11.6380   15.8450   42.4120 C.ar  217  TYR217      0.0417
     91  CZ        10.8060   16.6960   41.7060 C.ar  217  TYR217      0.1957
     92  OH         9.4990   16.3510   41.4660 O.3   217  TYR217     -0.2866
     93  N         16.6180   13.1960   35.7030 N.3   247  SER247     -0.1217
     94  CA        15.6090   13.9380   34.9600 C.3   247  SER247      0.1889
     95  C         16.1040   15.3700   34.7590 C.2   247  SER247      0.2288
     96  O         16.7400   15.9570   35.6460 O.2   247  SER247     -0.2866
     97  CB        14.2600   13.9360   35.6540 C.3   247  SER247      0.2089
     98  OG        13.3580   14.7840   34.9700 O.3   247  SER247     -0.2183
     99  N         13.7480   17.4370   33.4230 N.3   249  ALA249     -0.1231
    100  CA        12.4230   18.0530   33.3460 C.3   249  ALA249      0.1694
    101  C         12.2730   19.3490   34.1430 C.2   249  ALA249      0.2591
    102  O         11.7410   20.3470   33.6370 O.2   249  ALA249     -0.2718
    103  CB        11.3230   17.0870   33.7780 C.3   249  ALA249      0.0304
    104  N         12.7180   19.3440   35.3730 N.am  250  LYS250     -0.1980
    105  CA        12.6500   20.4290   36.3320 C.3   250  LYS250      0.1596
    106  C         13.8450   21.3490   36.3600 C.2   250  LYS250      0.2287
    107  O         13.6420   22.5880   36.2800 O.2   250  LYS250     -0.2864
    108  CB        12.2710   19.8990   37.7210 C.3   250  LYS250      0.0298
    109  CG        10.9370   19.1170   37.7010 C.3   250  LYS250      0.0038
    110  CD        11.1560   17.6120   37.7360 C.3   250  LYS250      0.0206
    111  CE         9.9180   16.7410   37.7310 C.3   250  LYS250      0.1093
    112  NZ        10.1440   15.4240   38.3340 N.3   250  LYS250     -0.1314
    113  N         10.4670   19.6870   30.6970 N.3   255  TYR255     -0.1241
    114  CA         9.2270   18.9610   30.8300 C.3   255  TYR255      0.1605
    115  C          8.8510   18.0550   29.6710 C.2   255  TYR255      0.2264
    116  O          9.1630   16.8570   29.7070 O.2   255  TYR255     -0.2867
    117  CB         8.0350   19.8990   31.2100 C.3   255  TYR255      0.0534
    118  CG         8.3500   20.5490   32.5510 C.ar  255  TYR255     -0.0201
    119  CD1        8.1990   19.8160   33.7300 C.ar  255  TYR255     -0.0009
    120  CD2        8.8120   21.8640   32.6160 C.ar  255  TYR255     -0.0009
    121  CE1        8.5080   20.3780   34.9600 C.ar  255  TYR255      0.0417
    122  CE2        9.1170   22.4330   33.8380 C.ar  255  TYR255      0.0417
    123  CZ         8.9730   21.6830   35.0030 C.ar  255  TYR255      0.1957
    124  OH         9.3100   22.2280   36.1950 O.3   255  TYR255     -0.2866
    125  N         11.2970   15.5880   27.1660 N.3   258  ARG258     -0.1245
    126  CA        11.6710   14.3110   27.7390 C.3   258  ARG258      0.1563
    127  C         13.1250   13.8880   27.6840 C.2   258  ARG258      0.2260
    128  O         13.4400   12.8880   27.0110 O.2   258  ARG258     -0.2867
    129  CB        10.7870   13.1620   27.2240 C.3   258  ARG258      0.0307
    130  CG         9.3200   13.5290   26.9240 C.3   258  ARG258      0.0489
    131  CD         8.6010   13.8860   28.1820 C.3   258  ARG258      0.2205
    132  NE         8.3960   12.7850   29.1210 N.pl3 258  ARG258     -0.0865
    133  CZ         8.4940   12.8750   30.4430 C.cat 258  ARG258      0.5346
    134  NH1        8.8420   14.0100   31.0490 N.pl3 258  ARG258      0.1354
    135  NH2        8.2800   11.8450   31.2450 N.pl3 258  ARG258      0.1354
@<TRIPOS>BOND
     1   130   129    1
     2   130   131    1
     3   128   127    2
     4   125   126    1
     5   129   126    1
     6   127   126    1
     7   131   132    1
     8   132   133    2
     9   115   116    2
    10   115   114    1
    11     1     2    1
    12   133   134    1
    13   133   135    1
    14   113   114    1
    15   114   117    1
    16     2     5    1
    17     2     3    1
    18     5     6    1
    19   117   118    1
    20     4     3    2
    21     3     7   am
    22   118   120   ar
    23   118   119   ar
    24   120   122   ar
    25     7     8    1
    26    13    14    2
    27    13    12    1
    28   100    99    1
    29   100   103    1
    30   100   101    1
    31   102   101    2
    32   119   121   ar
    33   122   123   ar
    34    15    17    1
    35    15    12    1
    36    15    16    1
    37   101   104   am
    38    11    12    1
    39    11     9   am
    40     8     9    1
    41     9    10    2
    42    95    94    1
    43    95    96    2
    44    18    19    1
    45    94    97    1
    46    94    93    1
    47   121   123   ar
    48    98    97    1
    49   123   124    1
    50   104   105    1
    51    20    19    1
    52    20    21    2
    53    19    22    1
    54   107   106    2
    55   105   106    1
    56   105   108    1
    57    22    23    1
    58   109   108    1
    59   109   110    1
    60   111   110    1
    61   111   112    1
    62    23    24    1
    63    23    25    1
    64    39    37   ar
    65    39    38   ar
    66    37    35   ar
    67    79    78    2
    68    38    36   ar
    69    77    80    1
    70    77    78    1
    71    77    76    1
    72    78    81   am
    73    35    34   ar
    74    35    33   ar
    75    74    73   ar
    76    34    32   ar
    77    36    33   ar
    78    33    31   ar
    79    81    82    1
    80    73    75   ar
    81    73    72    1
    82    82    83    1
    83    82    85    1
    84    89    87   ar
    85    89    91   ar
    86    43    42    2
    87    40    41    1
    88    92    91    1
    89    83    84    2
    90    87    86   ar
    91    47    49   ar
    92    47    45   ar
    93    91    90   ar
    94    41    42    1
    95    41    44    1
    96    32    31   ar
    97    69    70    1
    98    69    72    1
    99    69    68    1
   100    49    48   ar
   101    70    71    2
   102    31    30    1
   103    86    85    1
   104    86    88   ar
   105    90    88   ar
   106    45    44    1
   107    45    46   ar
   108    67    65   am
   109    48    46   ar
   110    30    27    1
   111    29    28    2
   112    28    27    1
   113    65    66    2
   114    65    64    1
   115    27    26    1
   116    64    61    1
   117    58    56   ar
   118    58    59   ar
   119    56    55   ar
   120    51    52    1
   121    51    54    1
   122    51    50    1
   123    61    62    1
   124    61    60    1
   125    59    57   ar
   126    55    54    1
   127    55    57   ar
   128    52    53    2
   129    63    62    2
