@<TRIPOS>MOLECULE
tmp/7at1B00.pdb
 140 129 0 0 0
SMALL
GASTEIGER

@<TRIPOS>ATOM
      1  N         14.9480   83.1740   37.3810 N.3     2  VAL2       -0.1231
      2  CA        16.0130   82.9640   36.3950 C.3     2  VAL2        0.1692
      3  C         16.4400   84.3500   35.8420 C.2     2  VAL2        0.2592
      4  O         16.4610   85.2810   36.6720 O.2     2  VAL2       -0.2718
      5  CB        15.5260   82.0060   35.2540 C.3     2  VAL2        0.0266
      6  CG1       16.7830   81.3770   34.6690 C.3     2  VAL2        0.0020
      7  CG2       14.6160   80.8680   35.7360 C.3     2  VAL2        0.0020
      8  N         16.7030   84.5870   34.5430 N.am    3  GLU3       -0.1966
      9  CA        17.1650   85.8760   34.0220 C.3     3  GLU3        0.1733
     10  C         16.7570   86.0820   32.5640 C.2     3  GLU3        0.2616
     11  O         16.5160   85.1270   31.8110 O.2     3  GLU3       -0.2715
     12  CB        18.7150   85.9950   34.0930 C.3     3  GLU3        0.0429
     13  CG        19.2480   87.0630   35.0550 C.3     3  GLU3        0.1163
     14  CD        19.1740   88.5080   34.5570 C.2     3  GLU3        0.3649
     15  OE1       18.0650   89.0420   34.3980 O.co2   3  GLU3       -0.2457
     16  OE2       20.2370   89.1130   34.3550 O.co2   3  GLU3       -0.2457
     17  N         16.6950   87.3680   32.1680 N.am    4  ALA4       -0.1963
     18  CA        16.4250   87.7760   30.7740 C.3     4  ALA4        0.1728
     19  C         17.7210   87.9150   29.9670 C.2     4  ALA4        0.2616
     20  O         18.6480   88.6380   30.3670 O.2     4  ALA4       -0.2715
     21  CB        15.7200   89.1360   30.7060 C.3     4  ALA4        0.0334
     22  N         17.8140   87.2190   28.8320 N.am    5  ILE5       -0.1977
     23  CA        19.0520   87.1970   28.0960 C.3     5  ILE5        0.1596
     24  C         18.7980   87.8200   26.7570 C.2     5  ILE5        0.2287
     25  O         17.6790   87.8120   26.2280 O.2     5  ILE5       -0.2864
     26  CB        19.6430   85.7260   27.8860 C.3     5  ILE5        0.0276
     27  CG1       18.7220   84.7920   27.1100 C.3     5  ILE5        0.0022
     28  CG2       19.9150   85.1210   29.2810 C.3     5  ILE5        0.0022
     29  CD1       19.4230   83.5060   26.5570 C.3     5  ILE5        0.0001
     30  N         18.8260   78.4730   25.7430 N.3    10  VAL10      -0.1245
     31  CA        18.1800   78.1810   27.0200 C.3    10  VAL10       0.1561
     32  C         17.7710   76.7230   26.8120 C.2    10  VAL10       0.2260
     33  O         16.9550   76.4400   25.9290 O.2    10  VAL10      -0.2867
     34  CB        16.8910   79.0480   27.2690 C.3    10  VAL10       0.0252
     35  CG1       16.1540   78.5650   28.5170 C.3    10  VAL10       0.0019
     36  CG2       17.2760   80.5000   27.4640 C.3    10  VAL10       0.0019
     37  N         15.6590   74.2250   28.1110 N.3    12  ASP12      -0.1225
     38  CA        14.5560   74.2110   29.0320 C.3    12  ASP12       0.1805
     39  C         14.0030   72.8070   29.0940 C.2    12  ASP12       0.2597
     40  O         14.2840   71.9590   28.2310 O.2    12  ASP12      -0.2718
     41  CB        13.5590   75.2590   28.5170 C.3    12  ASP12       0.1424
     42  CG        12.1550   75.2540   29.0920 C.2    12  ASP12       0.3668
     43  OD1       11.9580   75.0980   30.3010 O.co2  12  ASP12      -0.2456
     44  OD2       11.2360   75.4090   28.2920 O.co2  12  ASP12      -0.2456
     45  N         13.2270   72.6500   30.1790 N.am   13  HIS13      -0.1975
     46  CA        12.5140   71.4360   30.5670 C.3    13  HIS13       0.1656
     47  C         13.3580   70.1980   30.8880 C.2    13  HIS13       0.2291
     48  O         12.9850   69.0660   30.5350 O.2    13  HIS13      -0.2864
     49  CB        11.5050   71.0880   29.4720 C.3    13  HIS13       0.0771
     50  CG        10.3880   72.0970   29.3930 C.ar   13  HIS13       0.0820
     51  ND1        9.6160   72.4090   30.4200 N.ar   13  HIS13      -0.2267
     52  CD2       10.0660   72.8560   28.3100 C.ar   13  HIS13       0.1154
     53  CE1        8.8400   73.3830   30.0250 C.ar   13  HIS13       0.1986
     54  NE2        9.1110   73.6250   28.7650 N.ar   13  HIS13      -0.2212
     55  N          3.8530   70.8080   34.4070 N.3    45  GLU45      -0.1245
     56  CA         3.9690   69.8160   33.3440 C.3    45  GLU45       0.1567
     57  C          4.6220   68.5520   33.9190 C.2    45  GLU45       0.2260
     58  O          4.2860   67.4030   33.6480 O.2    45  GLU45      -0.2867
     59  CB         4.8310   70.4230   32.2440 C.3    45  GLU45       0.0388
     60  CG         4.3000   71.7110   31.6180 C.3    45  GLU45       0.1160
     61  CD         5.3960   72.5800   30.9940 C.2    45  GLU45       0.3649
     62  OE1        5.4640   72.6420   29.7590 O.co2  45  GLU45      -0.2457
     63  OE2        6.1560   73.2190   31.7410 O.co2  45  GLU45      -0.2457
     64  N         11.4420   70.6240   37.5260 N.3    49  LYS49      -0.1245
     65  CA        12.3310   70.5740   36.3860 C.3    49  LYS49       0.1561
     66  C         13.6000   71.3160   36.7950 C.2    49  LYS49       0.2260
     67  O         13.7280   71.7610   37.9500 O.2    49  LYS49      -0.2867
     68  CB        11.7260   71.2730   35.1690 C.3    49  LYS49       0.0271
     69  CG        11.5420   72.7820   35.3220 C.3    49  LYS49       0.0035
     70  CD        11.2140   73.4010   33.9660 C.3    49  LYS49       0.0206
     71  CE        10.8070   74.8580   34.1240 C.3    49  LYS49       0.1093
     72  NZ        10.2540   75.3290   32.8660 N.3    49  LYS49      -0.1314
     73  N         16.5550   74.0400   34.5950 N.3    51  LEU51      -0.1245
     74  CA        16.6130   74.8580   33.3980 C.3    51  LEU51       0.1561
     75  C         18.0150   75.4300   33.2250 C.2    51  LEU51       0.2260
     76  O         18.6250   75.7640   34.2470 O.2    51  LEU51      -0.2867
     77  CB        15.5490   75.9240   33.5810 C.3    51  LEU51       0.0270
     78  CG        15.4040   77.0290   32.5720 C.3    51  LEU51       0.0019
     79  CD1       13.9340   77.3450   32.4640 C.3    51  LEU51       0.0001
     80  CD2       16.2240   78.2570   32.9730 C.3    51  LEU51       0.0001
     81  N         20.4890   78.4320   31.2030 N.3    53  LYS53      -0.1245
     82  CA        20.5470   79.4810   30.1970 C.3    53  LYS53       0.1561
     83  C         22.0110   79.7850   30.1040 C.2    53  LYS53       0.2260
     84  O         22.6710   79.9030   31.1560 O.2    53  LYS53      -0.2867
     85  CB        19.7910   80.7530   30.6280 C.3    53  LYS53       0.0271
     86  CG        18.2960   80.5260   30.9110 C.3    53  LYS53       0.0035
     87  CD        17.4710   81.7910   31.1150 C.3    53  LYS53       0.0206
     88  CE        15.9520   81.4690   31.1830 C.3    53  LYS53       0.1093
     89  NZ        15.1550   82.6550   31.4700 N.3    53  LYS53      -0.1314
     90  N         13.5660   71.0580   25.7300 N.3    75  THR75      -0.1218
     91  CA        13.4390   71.8310   24.5170 C.3    75  THR75       0.1862
     92  C         14.6050   72.8050   24.5100 C.2    75  THR75       0.2287
     93  O         14.7650   73.6370   25.4030 O.2    75  THR75      -0.2866
     94  CB        12.0390   72.4940   24.5560 C.3    75  THR75       0.1770
     95  OG1       11.0570   71.4540   24.7600 O.3    75  THR75      -0.2211
     96  CG2       11.7290   73.2570   23.2640 C.3    75  THR75       0.0375
     97  N         15.9070   75.8930   23.3610 N.3    77  ASN77      -0.1240
     98  CA        15.3770   77.0800   22.7300 C.3    77  ASN77       0.1653
     99  C         16.5270   77.9600   22.3310 C.2    77  ASN77       0.2266
    100  O         17.4190   78.2990   23.1110 O.2    77  ASN77      -0.2867
    101  CB        14.4730   77.8350   23.6920 C.3    77  ASN77       0.1155
    102  CG        13.6270   78.9180   23.0520 C.2    77  ASN77       0.2627
    103  OD1       12.4030   78.8690   23.1710 O.2    77  ASN77      -0.2716
    104  ND2       14.1080   79.9540   22.3640 N.am   77  ASN77      -0.0877
    105  N         17.7130   81.5180   20.9750 N.3    79  ILE79      -0.1245
    106  CA        17.2690   82.8830   21.1570 C.3    79  ILE79       0.1561
    107  C         18.2990   83.7210   20.4500 C.2    79  ILE79       0.2260
    108  O         19.4990   83.5620   20.6870 O.2    79  ILE79      -0.2867
    109  CB        17.2020   83.2930   22.7190 C.3    79  ILE79       0.0252
    110  CG1       15.8810   82.7690   23.3290 C.3    79  ILE79       0.0019
    111  CG2       17.2360   84.8110   22.9120 C.3    79  ILE79       0.0019
    112  CD1       16.0220   81.5610   24.2790 C.3    79  ILE79       0.0001
    113  N         16.5630   88.4560   22.2390 N.3    82  TYR82      -0.1241
    114  CA        15.3110   88.3890   22.9640 C.3    82  TYR82       0.1605
    115  C         14.1460   87.7430   22.2100 C.2    82  TYR82       0.2264
    116  O         13.0060   87.6550   22.7050 O.2    82  TYR82      -0.2867
    117  CB        14.9120   89.8220   23.4220 C.3    82  TYR82       0.0534
    118  CG        15.6090   90.3350   24.6820 C.ar   82  TYR82      -0.0201
    119  CD1       16.6870   91.2170   24.6170 C.ar   82  TYR82      -0.0009
    120  CD2       15.1760   89.8530   25.9010 C.ar   82  TYR82      -0.0009
    121  CE1       17.3590   91.5580   25.7800 C.ar   82  TYR82       0.0417
    122  CE2       15.8380   90.1860   27.0620 C.ar   82  TYR82       0.0417
    123  CZ        16.9450   91.0050   26.9880 C.ar   82  TYR82       0.1957
    124  OH        17.6600   91.1920   28.1540 O.3    82  TYR82      -0.2866
    125  N         12.5540   84.3040   20.4800 N.3    84  VAL84      -0.1245
    126  CA        12.5990   82.8470   20.3540 C.3    84  VAL84       0.1561
    127  C         12.5620   82.5850   18.8370 C.2    84  VAL84       0.2260
    128  O         11.5280   82.6550   18.1640 O.2    84  VAL84      -0.2867
    129  CB        11.4040   82.1490   21.0210 C.3    84  VAL84       0.0252
    130  CG1       11.4190   80.6690   20.7060 C.3    84  VAL84       0.0019
    131  CG2       11.5000   82.2920   22.5360 C.3    84  VAL84       0.0019
    132  N         13.1770   76.3520   18.4070 N.3    87  LYS87      -0.1245
    133  CA        12.8260   75.4150   19.4550 C.3    87  LYS87       0.1561
    134  C         13.2210   74.0380   18.9300 C.2    87  LYS87       0.2260
    135  O         12.5750   73.4520   18.0500 O.2    87  LYS87      -0.2867
    136  CB        11.3450   75.4470   19.6950 C.3    87  LYS87       0.0271
    137  CG        10.9690   76.5250   20.6690 C.3    87  LYS87       0.0035
    138  CD         9.4850   76.3260   20.9330 C.3    87  LYS87       0.0206
    139  CE         9.0480   77.0280   22.1950 C.3    87  LYS87       0.1093
    140  NZ         9.4260   78.4300   22.1460 N.3    87  LYS87      -0.1314
@<TRIPOS>BOND
     1   135   134    2
     2   128   127    2
     3   132   133    1
     4   127   126    1
     5   134   133    1
     6   133   136    1
     7   136   137    1
     8   126   125    1
     9   126   129    1
    10   107   108    2
    11   107   106    1
    12   137   138    1
    13   130   129    1
    14   138   139    1
    15   105   106    1
    16   129   131    1
    17   106   109    1
    18   140   139    1
    19   115   116    2
    20   115   114    1
    21   113   114    1
    22    99    98    1
    23    99   100    2
    24   104   102   am
    25   109   111    1
    26   109   110    1
    27    98    97    1
    28    98   101    1
    29   114   117    1
    30   102   103    2
    31   102   101    1
    32    96    94    1
    33   110   112    1
    34   117   118    1
    35    92    91    1
    36    92    93    2
    37    91    94    1
    38    91    90    1
    39    94    95    1
    40   119   118   ar
    41   119   121   ar
    42   118   120   ar
    43    30    31    1
    44   121   123   ar
    45   120   122   ar
    46    33    32    2
    47    25    24    2
    48    29    27    1
    49    24    23    1
    50    32    31    1
    51   123   122   ar
    52   123   124    1
    53    31    34    1
    54    27    26    1
    55    34    36    1
    56    34    35    1
    57    26    23    1
    58    26    28    1
    59    23    22    1
    60    37    38    1
    61    40    39    2
    62    44    42   ar
    63    52    54   ar
    64    52    50   ar
    65    41    38    1
    66    41    42    1
    67    54    53   ar
    68    22    19   am
    69    38    39    1
    70    42    43   ar
    71    39    45   am
    72    50    49    1
    73    50    51   ar
    74    49    46    1
    75    62    61   ar
    76    19    20    2
    77    19    18    1
    78    53    51   ar
    79    83    82    1
    80    83    84    2
    81    45    46    1
    82    82    85    1
    83    82    81    1
    84    48    47    2
    85    46    47    1
    86    85    86    1
    87    21    18    1
    88    18    17    1
    89    86    87    1
    90    61    60    1
    91    61    63   ar
    92    87    88    1
    93    88    89    1
    94    60    59    1
    95    11    10    2
    96    17    10   am
    97    59    56    1
    98    79    78    1
    99    10     9    1
   100    78    80    1
   101    78    77    1
   102    72    71    1
   103    75    74    1
   104    75    76    2
   105    56    57    1
   106    56    55    1
   107    74    77    1
   108    74    73    1
   109    58    57    2
   110    70    71    1
   111    70    69    1
   112     9    12    1
   113     9     8    1
   114    12    13    1
   115    16    14   ar
   116    15    14   ar
   117     8     3   am
   118    14    13    1
   119     6     5    1
   120    68    69    1
   121    68    65    1
   122     5     7    1
   123     5     2    1
   124     3     2    1
   125     3     4    2
   126    65    66    1
   127    65    64    1
   128     2     1    1
   129    66    67    2
