@<TRIPOS>MOLECULE
tmp/7atjA02.pdb
 107 107 0 0 0
SMALL
GASTEIGER

@<TRIPOS>ATOM
      1  N          4.0820    8.3100   15.0690 N.3    38  ARG38      -0.1245
      2  CA         4.1050    7.9380   13.6590 C.3    38  ARG38       0.1563
      3  C          4.6230    9.0670   12.7780 C.2    38  ARG38       0.2260
      4  O          5.4140    8.8120   11.8480 O.2    38  ARG38      -0.2867
      5  CB         2.7040    7.5440   13.1720 C.3    38  ARG38       0.0307
      6  CG         2.7100    7.0220   11.7310 C.3    38  ARG38       0.0489
      7  CD         1.3920    6.3400   11.4330 C.3    38  ARG38       0.2205
      8  NE         1.3470    5.7660   10.1160 N.pl3  38  ARG38      -0.0865
      9  CZ         0.5240    6.0470    9.1170 C.cat  38  ARG38       0.5346
     10  NH1       -0.4210    6.9570    9.2760 N.pl3  38  ARG38       0.1354
     11  NH2        0.6100    5.4220    7.9460 N.pl3  38  ARG38       0.1354
     12  N          8.4820    9.0260   12.8910 N.3    41  PHE41      -0.1227
     13  CA         9.0060    7.9580   12.0510 C.3    41  PHE41       0.1736
     14  C          8.9150    8.3160   10.5650 C.2    41  PHE41       0.2595
     15  O          9.8950    8.1050    9.8490 O.2    41  PHE41      -0.2718
     16  CB         8.1930    6.7060   12.3390 C.3    41  PHE41       0.0547
     17  CG         8.2010    5.5790   11.3340 C.ar   41  PHE41      -0.0202
     18  CD1        9.3710    5.2030   10.7160 C.ar   41  PHE41      -0.0042
     19  CD2        7.0240    4.9190   11.0220 C.ar   41  PHE41      -0.0042
     20  CE1        9.3550    4.1480    9.8030 C.ar   41  PHE41      -0.0003
     21  CE2        7.0160    3.8800   10.0920 C.ar   41  PHE41      -0.0003
     22  CZ         8.1800    3.5090    9.4810 C.ar   41  PHE41      -0.0000
     23  N          7.7800    8.8280   10.0870 N.am   42  HIS42      -0.1975
     24  CA         7.6760    9.1970    8.6760 C.3    42  HIS42       0.1656
     25  C          8.5530   10.4100    8.3300 C.2    42  HIS42       0.2291
     26  O          8.9000   10.5520    7.1370 O.2    42  HIS42      -0.2864
     27  CB         6.2340    9.4800    8.2370 C.3    42  HIS42       0.0771
     28  CG         5.3960    8.2510    8.1530 C.ar   42  HIS42       0.0820
     29  ND1        4.1940    8.1950    7.4680 N.ar   42  HIS42      -0.2267
     30  CD2        5.5730    7.0330    8.6640 C.ar   42  HIS42       0.1154
     31  CE1        3.6890    6.9910    7.5670 C.ar   42  HIS42       0.1986
     32  NE2        4.4960    6.2510    8.2920 N.ar   42  HIS42      -0.2212
     33  N          1.5590    7.7130   -0.6380 N.3    68  PHE68      -0.1227
     34  CA         0.7010    6.6010   -0.2720 C.3    68  PHE68       0.1736
     35  C          0.7130    6.3190    1.2190 C.2    68  PHE68       0.2596
     36  O         -0.3710    5.9740    1.7350 O.2    68  PHE68      -0.2718
     37  CB         1.1360    5.3820   -1.1040 C.3    68  PHE68       0.0547
     38  CG         0.9390    5.6340   -2.6020 C.ar   68  PHE68      -0.0202
     39  CD1       -0.3180    5.7510   -3.1510 C.ar   68  PHE68      -0.0042
     40  CD2        2.0590    5.7620   -3.3990 C.ar   68  PHE68      -0.0042
     41  CE1       -0.4340    5.9920   -4.5230 C.ar   68  PHE68      -0.0003
     42  CE2        1.9640    5.9970   -4.7630 C.ar   68  PHE68      -0.0003
     43  CZ         0.6990    6.1390   -5.2900 C.ar   68  PHE68      -0.0000
     44  N          1.8300    6.4170    1.9250 N.am   69  GLY69      -0.1957
     45  CA         1.8520    6.1980    3.3600 C.3    69  GLY69       0.1869
     46  C          1.3420    7.3230    4.2280 C.2    69  GLY69       0.2309
     47  O          1.1780    7.1670    5.4370 O.2    69  GLY69      -0.2863
     48  N         -1.2610    9.9940    2.8060 N.3    71  ALA71      -0.1245
     49  CA        -2.5660   10.5300    2.4350 C.3    71  ALA71       0.1562
     50  C         -3.7180    9.7930    3.0990 C.2    71  ALA71       0.2260
     51  O         -3.7520    8.5750    3.0710 O.2    71  ALA71      -0.2867
     52  CB        -2.7110   10.4270    0.9140 C.3    71  ALA71       0.0290
     53  N         -4.2860    9.2970    6.0890 N.3    73  SER73      -0.1217
     54  CA        -3.7010    8.3960    7.0860 C.3    73  SER73       0.1889
     55  C         -2.9350    9.1510    8.1380 C.2    73  SER73       0.2288
     56  O         -3.2440    9.1060    9.3360 O.2    73  SER73      -0.2866
     57  CB        -2.7980    7.4200    6.2820 C.3    73  SER73       0.2089
     58  OG        -2.1160    6.5610    7.1740 O.3    73  SER73      -0.2183
     59  N          8.9690    4.6990    2.5340 N.3   138  LEU138     -0.1231
     60  CA         8.1730    4.2710    3.6810 C.3   138  LEU138      0.1678
     61  C          7.7310    2.8300    3.4770 C.2   138  LEU138      0.2434
     62  O          7.2090    2.5070    2.3920 O.2   138  LEU138     -0.2733
     63  CB         6.9310    5.1300    3.8570 C.3   138  LEU138      0.0284
     64  CG         7.1720    6.6240    4.1460 C.3   138  LEU138      0.0019
     65  CD1        5.8330    7.3560    4.1750 C.3   138  LEU138      0.0001
     66  CD2        7.9690    6.7450    5.4290 C.3   138  LEU138      0.0001
     67  N          7.9050    1.9730    4.4830 N.am  139  PRO139     -0.2718
     68  CA         7.5350    0.5610    4.2770 C.3   139  PRO139      0.1535
     69  C          6.0250    0.3290    4.2850 C.2   139  PRO139      0.2598
     70  O          5.3410    1.0630    4.9880 O.2   139  PRO139     -0.2715
     71  CB         8.2170   -0.1110    5.4530 C.3   139  PRO139      0.0310
     72  CG         8.2750    0.9330    6.5360 C.3   139  PRO139      0.0237
     73  CD         8.4870    2.2400    5.8030 C.3   139  PRO139      0.0939
     74  N          5.4910   -0.6440    3.5560 N.am  140  ALA140     -0.1964
     75  CA         4.0560   -0.8580    3.4590 C.3   140  ALA140      0.1713
     76  C          3.6120   -2.0670    4.2870 C.2   140  ALA140      0.2458
     77  O          4.4300   -2.9530    4.5170 O.2   140  ALA140     -0.2730
     78  CB         3.6370   -1.0710    1.9960 C.3   140  ALA140      0.0333
     79  N          2.3490   -2.0850    4.7180 N.am  141  PRO141     -0.2716
     80  CA         1.8690   -3.1810    5.5750 C.3   141  PRO141      0.1536
     81  C          1.9360   -4.5360    4.8540 C.2   141  PRO141      0.2598
     82  O          1.9630   -5.5810    5.5070 O.2   141  PRO141     -0.2715
     83  CB         0.4320   -2.7730    5.8890 C.3   141  PRO141      0.0310
     84  CG         0.0460   -1.7930    4.8010 C.3   141  PRO141      0.0237
     85  CD         1.3210   -1.0440    4.5070 C.3   141  PRO141      0.0939
     86  N          1.9520   -4.5260    3.5310 N.am  142  PHE142     -0.1974
     87  CA         1.9970   -5.7460    2.7170 C.3   142  PHE142      0.1639
     88  C          3.4130   -6.2070    2.3920 C.2   142  PHE142      0.2290
     89  O          3.5760   -7.1540    1.6130 O.2   142  PHE142     -0.2864
     90  CB         1.1650   -5.5920    1.4420 C.3   142  PHE142      0.0560
     91  CG         1.4320   -4.3510    0.5980 C.ar  142  PHE142     -0.0200
     92  CD1        2.5600   -4.3270   -0.2240 C.ar  142  PHE142     -0.0042
     93  CD2        0.5720   -3.2740    0.6310 C.ar  142  PHE142     -0.0042
     94  CE1        2.8180   -3.2030   -0.9840 C.ar  142  PHE142     -0.0003
     95  CE2        0.8550   -2.1400   -0.0910 C.ar  142  PHE142     -0.0003
     96  CZ         1.9770   -2.1050   -0.9060 C.ar  142  PHE142     -0.0000
     97  N         -6.2120   -1.9940    5.0180 N.3   179  PHE179     -0.1241
     98  CA        -4.8900   -2.6310    4.9760 C.3   179  PHE179      0.1605
     99  C         -4.8560   -4.0480    5.5080 C.2   179  PHE179      0.2264
    100  O         -3.7680   -4.6580    5.5410 O.2   179  PHE179     -0.2867
    101  CB        -3.8900   -1.7200    5.7490 C.3   179  PHE179      0.0534
    102  CG        -3.9200   -0.3210    5.1510 C.ar  179  PHE179     -0.0203
    103  CD1       -3.6470   -0.1510    3.8050 C.ar  179  PHE179     -0.0042
    104  CD2       -4.2480    0.7530    5.9490 C.ar  179  PHE179     -0.0042
    105  CE1       -3.7120    1.1250    3.2500 C.ar  179  PHE179     -0.0003
    106  CE2       -4.3150    2.0210    5.4030 C.ar  179  PHE179     -0.0003
    107  CZ        -4.0640    2.1960    4.0610 C.ar  179  PHE179     -0.0000
@<TRIPOS>BOND
     1    43    42   ar
     2    43    41   ar
     3    42    40   ar
     4    41    39   ar
     5    40    38   ar
     6    39    38   ar
     7    38    37    1
     8    37    34    1
     9    94    96   ar
    10    94    92   ar
    11    96    95   ar
    12    33    34    1
    13    34    35    1
    14    92    91   ar
    15    95    93   ar
    16    91    93   ar
    17    91    90    1
    18    52    49    1
    19    35    36    2
    20    35    44   am
    21    90    87    1
    22    89    88    2
    23    44    45    1
    24    78    75    1
    25    62    61    2
    26    88    87    1
    27    49    48    1
    28    49    50    1
    29    59    60    1
    30    87    86    1
    31    51    50    2
    32   105   103   ar
    33   105   107   ar
    34    45    46    1
    35    75    74    1
    36    75    76    1
    37    61    60    1
    38    61    67   am
    39    86    81   am
    40    74    69   am
    41    60    63    1
    42   103   102   ar
    43    63    64    1
    44   107   106   ar
    45    64    65    1
    46    64    66    1
    47    46    47    2
    48    68    69    1
    49    68    67    1
    50    68    71    1
    51    69    70    2
    52    76    77    2
    53    76    79   am
    54    67    73    1
    55    85    79    1
    56    85    84    1
    57    79    80    1
    58    84    83    1
    59    81    82    2
    60    81    80    1
    61    98    97    1
    62    98    99    1
    63    98   101    1
    64   102   101    1
    65   102   104   ar
    66   106   104   ar
    67    71    72    1
    68    99   100    2
    69    80    83    1
    70    73    72    1
    71    53    54    1
    72    57    54    1
    73    57    58    1
    74    54    55    1
    75    26    25    2
    76    29    31   ar
    77    29    28   ar
    78    31    32   ar
    79    11     9    1
    80    55    56    2
    81    28    27    1
    82    28    30   ar
    83    27    24    1
    84    32    30   ar
    85    25    24    1
    86    24    23    1
    87     9    10    1
    88     9     8    2
    89    22    20   ar
    90    22    21   ar
    91    20    18   ar
    92    15    14    2
    93    23    14   am
    94    21    19   ar
    95     8     7    1
    96    14    13    1
    97    18    17   ar
    98    19    17   ar
    99    17    16    1
   100     7     6    1
   101     6     5    1
   102     4     3    2
   103    13    16    1
   104    13    12    1
   105     3     2    1
   106     5     2    1
   107     2     1    1
