@<TRIPOS>MOLECULE
tmp/7cpaA00.pdb
 204 195 0 0 0
SMALL
GASTEIGER

@<TRIPOS>ATOM
      1  N         39.5590   18.6610   35.9550 N.3    69  HIS69      -0.1241
      2  CA        40.2360   17.4410   36.4320 C.3    69  HIS69       0.1621
      3  C         39.5020   17.1890   37.7350 C.2    69  HIS69       0.2264
      4  O         39.5800   17.9930   38.6640 O.2    69  HIS69      -0.2867
      5  CB        41.7640   17.6990   36.6860 C.3    69  HIS69       0.0745
      6  CG        42.6060   17.6780   35.3840 C.ar   69  HIS69       0.0817
      7  ND1       43.6660   18.4460   35.0210 N.ar   69  HIS69      -0.2268
      8  CD2       42.2540   16.7790   34.4370 C.ar   69  HIS69       0.1154
      9  CE1       43.9530   17.9970   33.8060 C.ar   69  HIS69       0.1986
     10  NE2       43.1150   17.0310   33.4710 N.ar   69  HIS69      -0.2212
     11  N         39.5920   15.1640   40.5580 N.3    71  ARG71      -0.1231
     12  CA        40.1410   14.9670   41.8910 C.3    71  ARG71       0.1694
     13  C         40.6660   16.2410   42.5310 C.2    71  ARG71       0.2591
     14  O         40.9550   16.2440   43.7210 O.2    71  ARG71      -0.2718
     15  CB        41.2800   13.9540   41.8630 C.3    71  ARG71       0.0321
     16  CG        42.3400   14.3210   40.8260 C.3    71  ARG71       0.0489
     17  CD        43.4820   13.3130   40.8310 C.3    71  ARG71       0.2205
     18  NE        44.5480   13.7030   39.9190 N.pl3  71  ARG71      -0.0865
     19  CZ        45.3640   12.7640   39.4540 C.cat  71  ARG71       0.5346
     20  NH1       45.1020   11.4770   39.6870 N.pl3  71  ARG71       0.1354
     21  NH2       46.4200   13.0910   38.7230 N.pl3  71  ARG71       0.1354
     22  N         40.7370   17.3360   41.7700 N.am   72  GLU72      -0.1979
     23  CA        41.2440   18.5920   42.2980 C.3    72  GLU72       0.1602
     24  C         40.1100   19.3250   43.0260 C.2    72  GLU72       0.2287
     25  O         39.7020   20.4210   42.6290 O.2    72  GLU72      -0.2864
     26  CB        41.7990   19.4260   41.1320 C.3    72  GLU72       0.0415
     27  CG        42.8340   18.5910   40.3590 C.3    72  GLU72       0.1163
     28  CD        43.4720   19.1220   39.0660 C.2    72  GLU72       0.3649
     29  OE1       43.0220   20.0510   38.4200 O.co2  72  GLU72      -0.2457
     30  OE2       44.4790   18.5600   38.6480 O.co2  72  GLU72      -0.2457
     31  N         40.9730   11.5000   37.5980 N.3   127  ARG127     -0.1245
     32  CA        41.2950   12.7610   36.9040 C.3   127  ARG127      0.1563
     33  C         40.4890   13.0340   35.6410 C.2   127  ARG127      0.2260
     34  O         39.9910   14.1320   35.3800 O.2   127  ARG127     -0.2867
     35  CB        42.7860   12.7600   36.5280 C.3   127  ARG127      0.0307
     36  CG        43.2460   13.7260   35.4350 C.3   127  ARG127      0.0489
     37  CD        44.7430   13.4270   35.1990 C.3   127  ARG127      0.2205
     38  NE        45.3100   14.2210   34.1290 N.pl3 127  ARG127     -0.0865
     39  CZ        45.9020   15.4050   34.3490 C.cat 127  ARG127      0.5346
     40  NH1       45.9770   15.9020   35.5950 N.pl3 127  ARG127      0.1354
     41  NH2       46.4180   16.1080   33.3200 N.pl3 127  ARG127      0.1354
     42  N         42.0730   18.0700   29.7000 N.3   144  ASN144     -0.1225
     43  CA        43.0340   19.1300   29.4690 C.3   144  ASN144      0.1785
     44  C         44.1580   18.7060   28.5360 C.2   144  ASN144      0.2597
     45  O         45.2650   19.2550   28.5570 O.2   144  ASN144     -0.2718
     46  CB        43.6420   19.6150   30.8010 C.3   144  ASN144      0.1169
     47  CG        44.0540   21.0700   30.6440 C.2   144  ASN144      0.2627
     48  OD1       43.4320   21.8080   29.8800 O.2   144  ASN144     -0.2716
     49  ND2       45.0850   21.5820   31.3210 N.am  144  ASN144     -0.0877
     50  N         43.9320   17.6670   27.7350 N.am  145  ARG145     -0.1979
     51  CA        44.8470   17.3560   26.6250 C.3   145  ARG145      0.1597
     52  C         43.9900   17.2160   25.3330 C.2   145  ARG145      0.2287
     53  O         44.4730   16.7960   24.2800 O.2   145  ARG145     -0.2864
     54  CB        45.6100   16.0080   26.8610 C.3   145  ARG145      0.0334
     55  CG        46.6180   15.7690   27.9920 C.3   145  ARG145      0.0492
     56  CD        47.9490   16.5890   28.0720 C.3   145  ARG145      0.2205
     57  NE        47.5750   17.6120   28.9850 N.pl3 145  ARG145     -0.0865
     58  CZ        48.0260   17.8000   30.2250 C.cat 145  ARG145      0.5346
     59  NH1       49.1180   17.2490   30.7300 N.pl3 145  ARG145      0.1354
     60  NH2       47.3620   18.6890   30.9340 N.pl3 145  ARG145      0.1354
     61  N         47.0010    8.7910   32.1570 N.3   163  GLU163     -0.1231
     62  CA        46.2130    9.8060   32.8430 C.3   163  GLU163      0.1699
     63  C         46.1270   11.0500   31.9770 C.2   163  GLU163      0.2592
     64  O         45.3170   11.9510   32.0940 O.2   163  GLU163     -0.2718
     65  CB        46.8840   10.1430   34.1710 C.3   163  GLU163      0.0402
     66  CG        46.7060    9.0160   35.1840 C.3   163  GLU163      0.1161
     67  CD        45.2920    8.9160   35.7440 C.2   163  GLU163      0.3649
     68  OE1       44.3370    9.3270   35.0920 O.co2 163  GLU163     -0.2457
     69  OE2       45.1350    8.4560   36.8650 O.co2 163  GLU163     -0.2457
     70  N         46.9880   11.0320   31.0060 N.am  164  THR164     -0.1953
     71  CA        47.1940   12.1330   30.1010 C.3   164  THR164      0.1897
     72  C         46.6970   11.7620   28.7080 C.2   164  THR164      0.2313
     73  O         47.1080   12.3160   27.6980 O.2   164  THR164     -0.2863
     74  CB        48.7020   12.3300   30.2490 C.3   164  THR164      0.1794
     75  OG1       48.9520   13.4300   31.1310 O.3   164  THR164     -0.2208
     76  CG2       49.2960   12.2700   28.8990 C.3   164  THR164      0.0378
     77  N         43.1140   24.8390   38.3740 N.3   196  HIS196     -0.1226
     78  CA        43.5340   23.4850   38.6820 C.3   196  HIS196      0.1752
     79  C         44.1740   23.4510   40.0900 C.2   196  HIS196      0.2597
     80  O         44.3480   24.4700   40.7540 O.2   196  HIS196     -0.2718
     81  CB        44.5900   23.0490   37.6140 C.3   196  HIS196      0.0759
     82  CG        44.1080   22.6040   36.2230 C.ar  196  HIS196      0.0818
     83  ND1       44.4610   21.4040   35.7020 N.ar  196  HIS196     -0.2268
     84  CD2       43.2860   23.3090   35.4080 C.ar  196  HIS196      0.1154
     85  CE1       43.8040   21.3810   34.5320 C.ar  196  HIS196      0.1986
     86  NE2       43.1550   22.5200   34.3590 N.ar  196  HIS196     -0.2212
     87  N         44.5640   22.2790   40.5830 N.am  197  SER197     -0.1938
     88  CA        45.4720   22.1690   41.7110 C.3   197  SER197      0.2055
     89  C         46.3020   20.8830   41.5680 C.2   197  SER197      0.2643
     90  O         45.9700   20.0090   40.7750 O.2   197  SER197     -0.2714
     91  CB        44.6750   22.1590   43.0090 C.3   197  SER197      0.2130
     92  OG        43.9210   20.9740   43.0630 O.3   197  SER197     -0.2179
     93  N         47.4320   20.6290   42.2100 N.am  198  TYR198     -0.1959
     94  CA        48.0230   21.5800   43.1300 C.3   198  TYR198      0.1771
     95  C         49.3650   21.9890   42.5600 C.2   198  TYR198      0.2620
     96  O         49.7730   21.4670   41.5270 O.2   198  TYR198     -0.2715
     97  CB        48.1870   20.9080   44.5020 C.3   198  TYR198      0.0574
     98  CG        49.0360   19.6440   44.4040 C.ar  198  TYR198     -0.0198
     99  CD1       50.4190   19.7240   44.5090 C.ar  198  TYR198     -0.0009
    100  CD2       48.4200   18.4410   44.1280 C.ar  198  TYR198     -0.0009
    101  CE1       51.1900   18.5940   44.3000 C.ar  198  TYR198      0.0417
    102  CE2       49.1870   17.3240   43.9050 C.ar  198  TYR198      0.0417
    103  CZ        50.5550   17.4090   44.0060 C.ar  198  TYR198      0.1957
    104  OH        51.2610   16.2450   43.8640 O.3   198  TYR198     -0.2866
    105  N         50.0250   22.9480   43.2300 N.am  199  SER199     -0.1950
    106  CA        51.3760   23.3560   42.9400 C.3   199  SER199      0.1924
    107  C         51.6410   24.7990   43.2190 C.2   199  SER199      0.2314
    108  O         52.8040   25.1400   43.3560 O.2   199  SER199     -0.2863
    109  CB        51.7600   23.1160   41.5010 C.3   199  SER199      0.2116
    110  OG        52.3090   21.8070   41.4650 O.3   199  SER199     -0.2180
    111  N         50.2510   30.1770   35.4390 N.3   203  LEU203     -0.1245
    112  CA        50.7850   29.7320   34.1800 C.3   203  LEU203      0.1561
    113  C         50.1740   30.4660   33.0080 C.2   203  LEU203      0.2260
    114  O         48.9830   30.7710   33.0110 O.2   203  LEU203     -0.2867
    115  CB        50.4950   28.2350   34.1420 C.3   203  LEU203      0.0270
    116  CG        51.4680   27.1060   34.4790 C.3   203  LEU203      0.0019
    117  CD1       52.6080   27.5180   35.3760 C.3   203  LEU203      0.0001
    118  CD2       50.5860   25.9900   35.0120 C.3   203  LEU203      0.0001
    119  N         53.5660   27.4910   30.7430 N.3   243  ILE243     -0.1245
    120  CA        53.3500   26.1090   31.1320 C.3   243  ILE243      0.1561
    121  C         54.5900   25.2370   30.9890 C.2   243  ILE243      0.2260
    122  O         55.0460   24.6650   31.9820 O.2   243  ILE243     -0.2867
    123  CB        52.2010   25.5290   30.2670 C.3   243  ILE243      0.0252
    124  CG1       50.9230   26.3110   30.5810 C.3   243  ILE243      0.0019
    125  CG2       52.0060   24.0320   30.5340 C.3   243  ILE243      0.0019
    126  CD1       49.7950   26.1180   29.5410 C.3   243  ILE243      0.0001
    127  N         55.5360   24.0900   34.8110 N.3   247  ILE247     -0.1231
    128  CA        55.2080   22.7650   35.3420 C.3   247  ILE247      0.1692
    129  C         55.7880   21.7210   34.4260 C.2   247  ILE247      0.2592
    130  O         56.6710   20.9820   34.8330 O.2   247  ILE247     -0.2718
    131  CB        53.7430   22.3210   35.4120 C.3   247  ILE247      0.0266
    132  CG1       52.8680   23.4670   35.1520 C.3   247  ILE247      0.0019
    133  CG2       53.5110   21.5910   36.7480 C.3   247  ILE247      0.0020
    134  CD1       52.6110   23.3420   33.6600 C.3   247  ILE247      0.0001
    135  N         55.3050   21.5850   33.2040 N.am  248  TYR248     -0.1976
    136  CA        55.9200   20.6710   32.2770 C.3   248  TYR248      0.1639
    137  C         55.2980   20.7720   30.9100 C.2   248  TYR248      0.2290
    138  O         54.2680   21.4110   30.7460 O.2   248  TYR248     -0.2864
    139  CB        55.7930   19.2120   32.7430 C.3   248  TYR248      0.0560
    140  CG        54.4500   18.8440   33.3270 C.ar  248  TYR248     -0.0198
    141  CD1       53.2960   19.0440   32.6010 C.ar  248  TYR248     -0.0009
    142  CD2       54.3930   18.3330   34.6110 C.ar  248  TYR248     -0.0009
    143  CE1       52.0780   18.7380   33.1700 C.ar  248  TYR248      0.0417
    144  CE2       53.1730   18.0310   35.2000 C.ar  248  TYR248      0.0417
    145  CZ        52.0190   18.2320   34.4590 C.ar  248  TYR248      0.1957
    146  OH        50.7910   17.9180   35.0140 O.3   248  TYR248     -0.2866
    147  N         52.9770   20.0480   27.8980 N.3   250  ALA250     -0.1245
    148  CA        51.6080   19.5570   27.8930 C.3   250  ALA250      0.1562
    149  C         50.9340   19.9940   26.5970 C.2   250  ALA250      0.2260
    150  O         50.8740   21.1960   26.3060 O.2   250  ALA250     -0.2867
    151  CB        50.7740   20.1500   29.0520 C.3   250  ALA250      0.0290
    152  N         46.2160   21.6970   25.8190 N.3   253  GLY253     -0.1210
    153  CA        45.6970   22.3710   27.0060 C.3   253  GLY253      0.1956
    154  C         44.7280   23.5000   26.6740 C.2   253  GLY253      0.2613
    155  O         44.8810   24.1820   25.6800 O.2   253  GLY253     -0.2717
    156  N         43.7250   23.7840   27.5010 N.am  254  SER254     -0.1938
    157  CA        42.7280   24.7630   27.1450 C.3   254  SER254      0.2055
    158  C         43.2640   26.1780   27.0430 C.2   254  SER254      0.2643
    159  O         42.7900   26.9700   26.2400 O.2   254  SER254     -0.2714
    160  CB        41.6000   24.7450   28.1640 C.3   254  SER254      0.2130
    161  OG        42.0930   24.9860   29.4750 O.3   254  SER254     -0.2179
    162  N         44.2260   26.5610   27.8590 N.am  255  ILE255     -0.1963
    163  CA        44.7490   27.9120   27.7480 C.3   255  ILE255      0.1727
    164  C         45.5240   28.2160   26.4620 C.2   255  ILE255      0.2616
    165  O         45.5990   29.3450   25.9780 O.2   255  ILE255     -0.2715
    166  CB        45.5770   28.0990   29.0580 C.3   255  ILE255      0.0290
    167  CG1       44.8440   29.2380   29.6180 C.3   255  ILE255      0.0022
    168  CG2       47.0760   28.3020   29.0130 C.3   255  ILE255      0.0023
    169  CD1       43.6750   28.6080   30.3310 C.3   255  ILE255      0.0001
    170  N         46.1460   27.1920   25.8910 N.am  256  ASP256     -0.1971
    171  CA        46.8430   27.3690   24.6360 C.3   256  ASP256      0.1709
    172  C         45.8470   27.5630   23.4940 C.2   256  ASP256      0.2293
    173  O         46.0660   28.3680   22.5870 O.2   256  ASP256     -0.2864
    174  CB        47.7280   26.1330   24.4190 C.3   256  ASP256      0.1436
    175  CG        48.9510   26.1280   25.3270 C.2   256  ASP256      0.3671
    176  OD1       49.2170   27.1670   25.9280 O.co2 256  ASP256     -0.2456
    177  OD2       49.6490   25.1150   25.4090 O.co2 256  ASP256     -0.2456
    178  N         46.1460   29.8000   33.6540 N.3   268  THR268     -0.1218
    179  CA        45.7620   28.6940   34.5110 C.3   268  THR268      0.1862
    180  C         46.3810   28.8490   35.8930 C.2   268  THR268      0.2287
    181  O         47.5850   29.0700   36.0580 O.2   268  THR268     -0.2866
    182  CB        46.2170   27.3430   33.9610 C.3   268  THR268      0.1770
    183  OG1       45.3770   27.0730   32.8550 O.3   268  THR268     -0.2211
    184  CG2       46.1350   26.2200   34.9880 C.3   268  THR268      0.0375
    185  N         47.2390   27.0210   39.4500 N.3   270  GLU270     -0.1245
    186  CA        47.4040   25.7580   40.1390 C.3   270  GLU270      0.1567
    187  C         47.2750   26.1180   41.6150 C.2   270  GLU270      0.2260
    188  O         48.1420   26.7850   42.1780 O.2   270  GLU270     -0.2867
    189  CB        48.7810   25.1670   39.9170 C.3   270  GLU270      0.0388
    190  CG        49.0280   24.9120   38.4390 C.3   270  GLU270      0.1160
    191  CD        48.2610   23.7080   37.8820 C.2   270  GLU270      0.3649
    192  OE1       47.9380   22.7850   38.6130 O.co2 270  GLU270     -0.2457
    193  OE2       48.0050   23.6570   36.6930 O.co2 270  GLU270     -0.2457
    194  N         46.1840   16.6250   46.3350 N.3   279  PHE279     -0.1241
    195  CA        44.7620   16.6910   45.9780 C.3   279  PHE279      0.1605
    196  C         43.8590   16.5800   47.1990 C.2   279  PHE279      0.2264
    197  O         42.6810   16.9440   47.1600 O.2   279  PHE279     -0.2867
    198  CB        44.3520   15.5630   45.0650 C.3   279  PHE279      0.0534
    199  CG        45.1880   15.5070   43.8190 C.ar  279  PHE279     -0.0203
    200  CD1       45.1710   16.5650   42.9350 C.ar  279  PHE279     -0.0042
    201  CD2       45.9850   14.4020   43.5980 C.ar  279  PHE279     -0.0042
    202  CE1       45.9740   16.5210   41.8160 C.ar  279  PHE279     -0.0003
    203  CE2       46.7940   14.3790   42.4880 C.ar  279  PHE279     -0.0003
    204  CZ        46.7800   15.4330   41.5970 C.ar  279  PHE279     -0.0000
@<TRIPOS>BOND
     1   173   172    2
     2   172   171    1
     3    53    52    2
     4   174   171    1
     5   174   175    1
     6   171   170    1
     7   175   177   ar
     8   175   176   ar
     9    52    51    1
    10   155   154    2
    11   152   153    1
    12   170   164   am
    13   165   164    2
    14   159   158    2
    15   150   149    2
    16   164   163    1
    17   149   148    1
    18    51    54    1
    19    51    50    1
    20   154   153    1
    21   154   156   am
    22    54    55    1
    23   158   157    1
    24   158   162   am
    25   157   156    1
    26   157   160    1
    27    73    72    2
    28    50    44   am
    29   163   162    1
    30   163   166    1
    31   148   147    1
    32   148   151    1
    33    55    56    1
    34    56    57    1
    35   160   161    1
    36    44    45    2
    37    44    43    1
    38    72    71    1
    39    76    74    1
    40    57    58    2
    41   168   166    1
    42   166   167    1
    43    43    42    1
    44    43    46    1
    45   126   124    1
    46   167   169    1
    47    48    47    2
    48    71    74    1
    49    71    70    1
    50    58    59    1
    51    58    60    1
    52    74    75    1
    53   123   125    1
    54   123   124    1
    55   123   120    1
    56    47    46    1
    57    47    49   am
    58   119   120    1
    59   138   137    2
    60   137   136    1
    61   121   120    1
    62   121   122    2
    63    70    63   am
    64    63    64    2
    65    63    62    1
    66    61    62    1
    67   136   139    1
    68   136   135    1
    69   141   143   ar
    70   141   140   ar
    71   139   140    1
    72    62    65    1
    73   183   182    1
    74   113   114    2
    75   113   112    1
    76   143   145   ar
    77   135   129   am
    78    41    39    1
    79   140   142   ar
    80    10     9   ar
    81    10     8   ar
    82   178   179    1
    83   134   132    1
    84     9     7   ar
    85   182   179    1
    86   182   184    1
    87    38    39    2
    88    38    37    1
    89   115   112    1
    90   115   116    1
    91    65    66    1
    92   112   111    1
    93    39    40    1
    94    86    85   ar
    95    86    84   ar
    96   129   130    2
    97   129   128    1
    98     8     6   ar
    99   145   146    1
   100   145   144   ar
   101   116   118    1
   102   116   117    1
   103   179   180    1
   104    85    83   ar
   105   142   144   ar
   106   127   128    1
   107     7     6   ar
   108    68    67   ar
   109   132   131    1
   110    66    67    1
   111    37    36    1
   112   128   131    1
   113    34    33    2
   114     6     5    1
   115    84    82   ar
   116   131   133    1
   117    36    35    1
   118    33    32    1
   119    83    82   ar
   120    67    69   ar
   121   180   181    2
   122     1     2    1
   123    82    81    1
   124     2     5    1
   125     2     3    1
   126    35    32    1
   127   193   191   ar
   128    32    31    1
   129    81    78    1
   130     3     4    2
   131   191   190    1
   132   191   192   ar
   133    77    78    1
   134    29    28   ar
   135   190   189    1
   136    30    28   ar
   137    78    79    1
   138    21    19    1
   139    28    27    1
   140   185   186    1
   141    19    20    1
   142    19    18    2
   143   189   186    1
   144    18    17    1
   145    79    87   am
   146    79    80    2
   147   186   187    1
   148    27    26    1
   149    11    12    1
   150    87    88    1
   151    90    89    2
   152    16    17    1
   153    16    15    1
   154    26    23    1
   155   110   109    1
   156   109   106    1
   157    96    95    2
   158    89    88    1
   159    89    93   am
   160   204   202   ar
   161   204   203   ar
   162   187   188    2
   163    88    91    1
   164    22    23    1
   165    22    13   am
   166   202   200   ar
   167    15    12    1
   168    12    13    1
   169    93    94    1
   170    23    24    1
   171   203   201   ar
   172    13    14    2
   173    95    94    1
   174    95   105   am
   175    25    24    2
   176   200   199   ar
   177   106   107    1
   178   106   105    1
   179    91    92    1
   180    94    97    1
   181   107   108    2
   182   201   199   ar
   183   199   198    1
   184   104   103    1
   185   102   103   ar
   186   102   100   ar
   187   103   101   ar
   188   100    98   ar
   189   101    99   ar
   190    98    97    1
   191    98    99   ar
   192   198   195    1
   193   195   194    1
   194   195   196    1
   195   197   196    2
