@<TRIPOS>MOLECULE
tmp/7cppA01.pdb
 110 101 0 0 0
SMALL
GASTEIGER

@<TRIPOS>ATOM
      1  N         40.5760   37.8580   18.1850 N.3    78  PHE78      -0.1241
      2  CA        41.6850   37.7380   19.1390 C.3    78  PHE78       0.1605
      3  C         41.3220   36.5870   20.1030 C.2    78  PHE78       0.2264
      4  O         40.1540   36.4300   20.4690 O.2    78  PHE78      -0.2867
      5  CB        41.9580   38.9940   19.9470 C.3    78  PHE78       0.0534
      6  CG        42.7830   40.1100   19.4100 C.ar   78  PHE78      -0.0203
      7  CD1       43.4350   40.9610   20.3260 C.ar   78  PHE78      -0.0042
      8  CD2       42.9150   40.3720   18.0520 C.ar   78  PHE78      -0.0042
      9  CE1       44.2200   42.0080   19.9080 C.ar   78  PHE78      -0.0003
     10  CE2       43.7350   41.4090   17.5980 C.ar   78  PHE78      -0.0003
     11  CZ        44.4020   42.2120   18.5250 C.ar   78  PHE78      -0.0000
     12  N         37.2820   43.2440   21.7730 N.3    87  TYR87      -0.1241
     13  CA        37.8360   43.7970   20.5400 C.3    87  TYR87       0.1605
     14  C         36.6660   44.3320   19.6990 C.2    87  TYR87       0.2264
     15  O         35.7870   43.5520   19.2710 O.2    87  TYR87      -0.2867
     16  CB        38.5940   42.7020   19.7650 C.3    87  TYR87       0.0534
     17  CG        39.3770   43.1740   18.5760 C.ar   87  TYR87      -0.0201
     18  CD1       38.7890   43.4230   17.3360 C.ar   87  TYR87      -0.0009
     19  CD2       40.7640   43.3840   18.6960 C.ar   87  TYR87      -0.0009
     20  CE1       39.5500   43.8810   16.2620 C.ar   87  TYR87       0.0417
     21  CE2       41.5140   43.8560   17.6400 C.ar   87  TYR87       0.0417
     22  CZ        40.9060   44.1060   16.4260 C.ar   87  TYR87       0.1957
     23  OH        41.6880   44.5700   15.4040 O.3    87  TYR87      -0.2866
     24  N         37.4650   47.1770   17.2960 N.3    89  PHE89      -0.1241
     25  CA        38.1050   48.0470   16.3200 C.3    89  PHE89       0.1605
     26  C         37.4790   47.8780   14.9290 C.2    89  PHE89       0.2264
     27  O         37.0510   46.8080   14.5090 O.2    89  PHE89      -0.2867
     28  CB        39.6080   47.9130   16.2470 C.3    89  PHE89       0.0534
     29  CG        40.4200   48.0410   17.4830 C.ar   89  PHE89      -0.0203
     30  CD1       40.0610   48.9000   18.5240 C.ar   89  PHE89      -0.0042
     31  CD2       41.6480   47.3800   17.5650 C.ar   89  PHE89      -0.0042
     32  CE1       40.8260   49.0380   19.6590 C.ar   89  PHE89      -0.0003
     33  CE2       42.4680   47.5130   18.6910 C.ar   89  PHE89      -0.0003
     34  CZ        42.0500   48.3580   19.7330 C.ar   89  PHE89      -0.0000
     35  N         38.4690   46.0500   11.3860 N.3    92  THR92      -0.1218
     36  CA        38.8750   44.7090   11.7070 C.3    92  THR92       0.1862
     37  C         37.8770   43.8190   12.3800 C.2    92  THR92       0.2287
     38  O         37.9580   42.5700   12.1530 O.2    92  THR92      -0.2866
     39  CB        40.3290   44.5640   12.2810 C.3    92  THR92       0.1770
     40  OG1       40.4270   45.5160   13.3810 O.3    92  THR92      -0.2211
     41  CG2       41.4590   44.7900   11.2620 C.3    92  THR92       0.0375
     42  N         48.6130   43.3600   22.3450 N.3   176  THR176     -0.1218
     43  CA        49.2060   42.3580   21.4410 C.3   176  THR176      0.1862
     44  C         50.0320   41.2940   22.1520 C.2   176  THR176      0.2287
     45  O         49.9730   40.0850   21.8600 O.2   176  THR176     -0.2866
     46  CB        50.1310   43.1240   20.4030 C.3   176  THR176      0.1770
     47  OG1       51.0300   43.8730   21.3000 O.3   176  THR176     -0.2211
     48  CG2       49.4000   43.9610   19.4040 C.3   176  THR176      0.0375
     49  N         42.3790   51.2720   16.3620 N.3   235  LEU235     -0.1245
     50  CA        43.1130   50.3890   15.4510 C.3   235  LEU235      0.1561
     51  C         44.3390   51.0520   14.8380 C.2   235  LEU235      0.2260
     52  O         45.4100   50.4310   14.6630 O.2   235  LEU235     -0.2867
     53  CB        42.1920   49.8890   14.3390 C.3   235  LEU235      0.0270
     54  CG        42.8550   48.9440   13.3340 C.3   235  LEU235      0.0019
     55  CD1       43.2950   47.6360   13.9410 C.3   235  LEU235      0.0001
     56  CD2       41.9520   48.7330   12.1390 C.3   235  LEU235      0.0001
     57  N         47.2530   50.9960   17.1150 N.3   238  VAL238     -0.1231
     58  CA        47.9130   49.6640   17.2820 C.3   238  VAL238      0.1692
     59  C         48.8270   49.3670   16.1200 C.2   238  VAL238      0.2592
     60  O         49.9780   48.9370   16.3550 O.2   238  VAL238     -0.2718
     61  CB        46.9170   48.5860   17.6960 C.3   238  VAL238      0.0266
     62  CG1       47.5950   47.2150   17.8650 C.3   238  VAL238      0.0020
     63  CG2       46.2760   48.9000   19.0600 C.3   238  VAL238      0.0020
     64  N         48.3690   49.6290   14.9220 N.am  239  GLY239     -0.1957
     65  CA        49.1050   49.4700   13.6690 C.3   239  GLY239      0.1869
     66  C         50.2850   50.4010   13.5800 C.2   239  GLY239      0.2309
     67  O         51.4300   50.0070   13.2530 O.2   239  GLY239     -0.2863
     68  N         53.5020   47.5050   14.8960 N.3   243  THR243     -0.1218
     69  CA        53.8210   46.5420   13.8230 C.3   243  THR243      0.1862
     70  C         55.2030   46.7380   13.2170 C.2   243  THR243      0.2287
     71  O         56.0690   45.8700   13.3080 O.2   243  THR243     -0.2866
     72  CB        52.6790   46.4820   12.7460 C.3   243  THR243      0.1770
     73  OG1       52.6290   47.8370   12.2580 O.3   243  THR243     -0.2211
     74  CG2       51.3170   46.0500   13.3140 C.3   243  THR243      0.0375
     75  N         52.5670   38.5060   12.6520 N.3   286  VAL286     -0.1245
     76  CA        51.1760   38.6430   13.1000 C.3   286  VAL286      0.1561
     77  C         50.5080   37.2440   13.1160 C.2   286  VAL286      0.2260
     78  O         50.6650   36.4840   12.1900 O.2   286  VAL286     -0.2867
     79  CB        50.3850   39.6110   12.2050 C.3   286  VAL286      0.0252
     80  CG1       48.9280   39.8280   12.6950 C.3   286  VAL286      0.0019
     81  CG2       51.0460   41.0170   12.3140 C.3   286  VAL286      0.0019
     82  N         46.4310   36.4830   14.0800 N.3   288  ASP288     -0.1239
     83  CA        45.0410   36.6360   14.6850 C.3   288  ASP288      0.1674
     84  C         44.1980   35.5220   14.1790 C.2   288  ASP288      0.2266
     85  O         44.6500   34.4690   13.6920 O.2   288  ASP288     -0.2867
     86  CB        44.5590   38.0610   14.7020 C.3   288  ASP288      0.1410
     87  CG        44.1600   38.6260   13.3940 C.2   288  ASP288      0.3668
     88  OD1       44.2870   37.9790   12.3260 O.co2 288  ASP288     -0.2456
     89  OD2       43.6320   39.7480   13.3700 O.co2 288  ASP288     -0.2456
     90  N         45.9860   44.3310    4.7250 N.3   348  CYS348     -0.1235
     91  CA        46.5290   45.4710    5.4110 C.3   348  CYS348      0.1677
     92  C         46.5720   46.7190    4.5430 C.2   348  CYS348      0.2270
     93  O         47.1520   46.7460    3.4610 O.2   348  CYS348     -0.2867
     94  CB        47.9170   45.1590    5.9950 C.3   348  CYS348      0.0956
     95  SG        48.5890   46.6480    6.8550 S.3   348  CYS348     -0.0801
     96  N         49.9270   38.2490   19.6440 N.3   386  ILE386     -0.1231
     97  CA        49.1880   38.6670   18.4480 C.3   386  ILE386      0.1692
     98  C         50.1650   39.2710   17.4520 C.2   386  ILE386      0.2591
     99  O         50.0210   39.1000   16.2340 O.2   386  ILE386     -0.2718
    100  CB        47.9760   39.6010   18.7790 C.3   386  ILE386      0.0266
    101  CG1       47.0000   38.9380   19.7720 C.3   386  ILE386      0.0019
    102  CG2       47.2730   40.0720   17.4650 C.3   386  ILE386      0.0020
    103  CD1       46.1940   37.7290   19.2430 C.3   386  ILE386      0.0001
    104  N         51.0640   40.0810   17.9690 N.am  387  VAL387     -0.1980
    105  CA        52.1970   40.6250   17.2190 C.3   387  VAL387      0.1595
    106  C         53.4370   40.2470   18.0450 C.2   387  VAL387      0.2287
    107  O         53.4480   40.5270   19.2510 O.2   387  VAL387     -0.2864
    108  CB        52.1150   42.1350   16.9590 C.3   387  VAL387      0.0276
    109  CG1       53.3460   42.5910   16.1420 C.3   387  VAL387      0.0022
    110  CG2       50.8370   42.6000   16.2830 C.3   387  VAL387      0.0022
@<TRIPOS>BOND
     1    93    92    2
     2    92    91    1
     3    90    91    1
     4    91    94    1
     5    94    95    1
     6    41    39    1
     7    35    36    1
     8    36    39    1
     9    36    37    1
    10    56    54    1
    11    38    37    2
    12    78    77    2
    13    79    81    1
    14    79    80    1
    15    79    76    1
    16    73    72    1
    17    39    40    1
    18    88    87   ar
    19    75    76    1
    20    72    74    1
    21    72    69    1
    22    76    77    1
    23    70    71    2
    24    70    69    1
    25    67    66    2
    26    54    55    1
    27    54    53    1
    28    89    87   ar
    29    87    86    1
    30    66    65    1
    31    65    64    1
    32    85    84    2
    33    69    68    1
    34    82    83    1
    35    84    83    1
    36    53    50    1
    37    27    26    2
    38    52    51    2
    39    83    86    1
    40    51    50    1
    41    64    59   am
    42    26    25    1
    43    23    22    1
    44    50    49    1
    45    59    60    2
    46    59    58    1
    47   109   108    1
    48    99    98    2
    49    28    25    1
    50    28    29    1
    51    20    22   ar
    52    20    18   ar
    53   110   108    1
    54    25    24    1
    55    22    21   ar
    56   108   105    1
    57    57    58    1
    58   105   104    1
    59   105   106    1
    60    58    61    1
    61    18    17   ar
    62    98   104   am
    63    98    97    1
    64   102   100    1
    65    29    31   ar
    66    29    30   ar
    67    31    33   ar
    68    10     8   ar
    69    10    11   ar
    70    21    19   ar
    71    61    62    1
    72    61    63    1
    73   106   107    2
    74     8     6   ar
    75     1     2    1
    76    97   100    1
    77    97    96    1
    78    30    32   ar
    79    11     9   ar
    80    17    19   ar
    81    17    16    1
    82    33    34   ar
    83   100   101    1
    84     2     5    1
    85     2     3    1
    86   103   101    1
    87    15    14    2
    88    48    46    1
    89     6     5    1
    90     6     7   ar
    91    32    34   ar
    92    14    13    1
    93    16    13    1
    94     9     7   ar
    95     3     4    2
    96    46    47    1
    97    46    43    1
    98    13    12    1
    99    43    44    1
   100    43    42    1
   101    45    44    2
