@<TRIPOS>MOLECULE
tmp/7gchC01.pdb
 109 108 0 0 0
SMALL
GASTEIGER

@<TRIPOS>ATOM
      1  N         40.4620   84.9960   95.0890 N.3    39  SER39      -0.1202
      2  CA        40.2910   83.6830   94.5180 C.3    39  SER39       0.2020
      3  C         39.6570   83.7750   93.1240 C.2    39  SER39       0.2619
      4  O         38.8470   84.6440   92.8630 O.2    39  SER39      -0.2717
      5  CB        39.3860   82.8110   95.4070 C.3    39  SER39       0.2103
      6  OG        39.3150   81.5330   94.8540 O.3    39  SER39      -0.2182
      7  N         40.1360   82.8700   92.2910 N.am   40  SER40      -0.1937
      8  CA        39.5400   82.6390   90.9550 C.3    40  SER40       0.2055
      9  C         38.2890   81.8100   91.2980 C.2    40  SER40       0.2643
     10  O         38.2270   81.1820   92.3490 O.2    40  SER40      -0.2714
     11  CB        40.4500   81.9270   89.9790 C.3    40  SER40       0.2130
     12  OG        41.5220   82.7650   89.5880 O.3    40  SER40      -0.2179
     13  N         37.3310   81.8740   90.3860 N.am   41  CYS41      -0.1953
     14  CA        36.0500   81.1660   90.6520 C.3    41  CYS41       0.1843
     15  C         35.4660   80.6220   89.3420 C.2    41  CYS41       0.2625
     16  O         36.0820   80.7490   88.2850 O.2    41  CYS41      -0.2714
     17  CB        35.1260   82.1550   91.3650 C.3    41  CYS41       0.0997
     18  SG        34.0560   81.4310   92.6260 S.3    41  CYS41      -0.0797
     19  N         34.3480   79.9800   89.5410 N.am   42  MET42      -0.1963
     20  CA        33.5340   79.3380   88.5040 C.3    42  MET42       0.1736
     21  C         33.3050   80.4520   87.4930 C.2    42  MET42       0.2617
     22  O         32.9840   81.5950   87.8920 O.2    42  MET42      -0.2715
     23  CB        32.2640   78.7520   89.1380 C.3    42  MET42       0.0427
     24  CG        32.5950   77.4470   89.8360 C.3    42  MET42       0.0599
     25  SD        33.2690   77.7080   91.4990 S.3    42  MET42      -0.1393
     26  CE        31.8270   78.5670   92.2170 C.3    42  MET42       0.0692
     27  N         33.6280   80.1130   86.2360 N.am   43  GLY43      -0.1940
     28  CA        33.4970   81.1560   85.1770 C.3    43  GLY43       0.2014
     29  C         34.8610   81.6450   84.7400 C.2    43  GLY43       0.2639
     30  O         34.9410   82.1960   83.6360 O.2    43  GLY43      -0.2714
     31  N         35.9260   81.5400   85.5250 N.am   44  ASP44      -0.1957
     32  CA        37.2760   81.9750   85.1780 C.3    44  ASP44       0.1840
     33  C         38.1040   80.9540   84.3710 C.2    44  ASP44       0.2622
     34  O         39.1420   81.3640   83.8120 O.2    44  ASP44      -0.2715
     35  CB        38.0360   82.4360   86.4260 C.3    44  ASP44       0.1450
     36  CG        37.6140   83.7490   87.0530 C.2    44  ASP44       0.3671
     37  OD1       37.4920   83.8620   88.2990 O.co2  44  ASP44      -0.2456
     38  OD2       37.3270   84.6970   86.2580 O.co2  44  ASP44      -0.2456
     39  N         37.7670   79.7000   84.3530 N.am   45  SER45      -0.1950
     40  CA        38.4850   78.6020   83.7120 C.3    45  SER45       0.1924
     41  C         38.9060   79.0310   82.3060 C.2    45  SER45       0.2314
     42  O         38.1660   79.8070   81.7090 O.2    45  SER45      -0.2863
     43  CB        37.6340   77.3450   83.7580 C.3    45  SER45       0.2116
     44  OG        37.3230   76.9830   85.0880 O.3    45  SER45      -0.2180
     45  N         43.8140   79.0560   84.1960 N.3    63  VAL63      -0.1231
     46  CA        42.8660   78.8410   85.3380 C.3    63  VAL63       0.1692
     47  C         42.2860   77.4320   85.1430 C.2    63  VAL63       0.2593
     48  O         41.6660   77.0520   84.1290 O.2    63  VAL63      -0.2718
     49  CB        41.8670   79.9410   85.5770 C.3    63  VAL63       0.0266
     50  CG1       40.9540   79.6970   86.8060 C.3    63  VAL63       0.0020
     51  CG2       42.3870   81.3840   85.7410 C.3    63  VAL63       0.0020
     52  N         42.5460   76.6160   86.1950 N.am   64  SER64      -0.1938
     53  CA        42.1350   75.1970   86.1620 C.3    64  SER64       0.2055
     54  C         41.0550   74.8740   87.1880 C.2    64  SER64       0.2643
     55  O         39.8970   74.6250   86.7940 O.2    64  SER64      -0.2714
     56  CB        43.3910   74.4210   86.4640 C.3    64  SER64       0.2130
     57  OG        43.3630   73.1000   86.0810 O.3    64  SER64      -0.2179
     58  N         41.4160   74.9030   88.4940 N.am   65  TRP65      -0.1959
     59  CA        40.4530   74.4580   89.5390 C.3    65  TRP65       0.1771
     60  C         40.8610   74.8750   90.9270 C.2    65  TRP65       0.2620
     61  O         41.9090   75.5670   91.0230 O.2    65  TRP65      -0.2715
     62  CB        40.4570   72.9200   89.5370 C.3    65  TRP65       0.0590
     63  CG        41.7550   72.2440   89.6920 C.ar   65  TRP65       0.0006
     64  CD1       42.7520   72.0250   88.7330 C.ar   65  TRP65       0.0946
     65  CD2       42.3130   71.6830   90.9080 C.ar   65  TRP65       0.0152
     66  NE1       43.8000   71.3330   89.2690 N.ar   65  TRP65      -0.2442
     67  CE2       43.5590   71.1410   90.6080 C.ar   65  TRP65       0.0810
     68  CE3       41.8720   71.6900   92.2450 C.ar   65  TRP65       0.0012
     69  CZ2       44.3500   70.5080   91.5700 C.ar   65  TRP65       0.0191
     70  CZ3       42.6220   70.9740   93.1620 C.ar   65  TRP65       0.0001
     71  CH2       43.9380   70.5530   92.8700 C.ar   65  TRP65       0.0015
     72  N         40.1480   74.5530   91.9910 N.am   66  GLY66      -0.1940
     73  CA        40.6210   74.9230   93.3290 C.3    66  GLY66       0.2014
     74  C         39.5020   74.5300   94.3170 C.2    66  GLY66       0.2640
     75  O         38.9330   73.4440   94.1550 O.2    66  GLY66      -0.2714
     76  N         39.2290   75.4660   95.1820 N.am   67  SER67      -0.1935
     77  CA        38.2250   75.3050   96.2560 C.3    67  SER67       0.2055
     78  C         36.8360   75.3060   95.6760 C.2    67  SER67       0.2643
     79  O         36.3790   76.3440   95.1660 O.2    67  SER67      -0.2714
     80  CB        38.3990   76.5130   97.1960 C.3    67  SER67       0.2130
     81  OG        37.3250   76.7980   98.0120 O.3    67  SER67      -0.2179
     82  N         36.1320   74.2200   95.7980 N.am   68  SER68      -0.1949
     83  CA        34.7620   73.9990   95.3720 C.3    68  SER68       0.1924
     84  C         33.9810   75.3030   95.4740 C.2    68  SER68       0.2314
     85  O         33.0040   75.6860   94.8180 O.2    68  SER68      -0.2863
     86  CB        34.1420   72.9790   96.3780 C.3    68  SER68       0.2116
     87  OG        34.4390   73.4270   97.7070 O.3    68  SER68      -0.2180
     88  N         35.5860   78.4880   96.1240 N.3    70  CYS70      -0.1235
     89  CA        36.3020   79.7590   95.8300 C.3    70  CYS70       0.1677
     90  C         36.7040   80.4440   97.1300 C.2    70  CYS70       0.2270
     91  O         36.6680   81.6920   97.2870 O.2    70  CYS70      -0.2867
     92  CB        35.3350   80.6360   95.0210 C.3    70  CYS70       0.0956
     93  SG        34.7580   79.7450   93.5660 S.3    70  CYS70      -0.0801
     94  N         44.4060   78.7030   94.3990 N.3    76  GLY76      -0.1225
     95  CA        43.7230   78.2600   93.1260 C.3    76  GLY76       0.1811
     96  C         44.6710   77.3010   92.4130 C.2    76  GLY76       0.2280
     97  O         45.9000   77.4720   92.5590 O.2    76  GLY76      -0.2866
     98  N         46.2300   76.1230   88.9030 N.3    78  TYR78      -0.1241
     99  CA        46.3500   76.5390   87.4960 C.3    78  TYR78       0.1605
    100  C         47.2060   75.5370   86.7200 C.2    78  TYR78       0.2264
    101  O         47.9190   74.7660   87.3450 O.2    78  TYR78      -0.2867
    102  CB        47.0580   77.9150   87.3970 C.3    78  TYR78       0.0534
    103  CG        46.2730   78.9730   88.1340 C.ar   78  TYR78      -0.0201
    104  CD1       46.2940   78.9800   89.5450 C.ar   78  TYR78      -0.0009
    105  CD2       45.5840   79.9700   87.4730 C.ar   78  TYR78      -0.0009
    106  CE1       45.5680   79.9250   90.2400 C.ar   78  TYR78       0.0417
    107  CE2       44.8950   80.9710   88.1630 C.ar   78  TYR78       0.0417
    108  CZ        44.9040   80.9440   89.5670 C.ar   78  TYR78       0.1957
    109  OH        44.1950   81.8610   90.2600 O.3    78  TYR78      -0.2866
@<TRIPOS>BOND
     1    42    41    2
     2    41    40    1
     3    30    29    2
     4    40    43    1
     5    40    39    1
     6    43    44    1
     7    34    33    2
     8    48    47    2
     9    45    46    1
    10    39    33   am
    11    33    32    1
    12    29    28    1
    13    29    31   am
    14    47    46    1
    15    47    52   am
    16    28    27    1
    17    32    31    1
    18    32    35    1
    19    46    49    1
    20    49    51    1
    21    49    50    1
    22    57    56    1
    23    53    52    1
    24    53    56    1
    25    53    54    1
    26    27    21   am
    27    38    36   ar
    28    35    36    1
    29   100   101    2
    30   100    99    1
    31    55    54    2
    32    36    37   ar
    33    54    58   am
    34   102    99    1
    35   102   103    1
    36   105   103   ar
    37   105   107   ar
    38    21    22    2
    39    21    20    1
    40    99    98    1
    41   103   104   ar
    42   107   108   ar
    43    16    15    2
    44    58    59    1
    45    20    23    1
    46    20    19    1
    47    64    66   ar
    48    64    63   ar
    49    23    24    1
    50    66    67   ar
    51    15    19   am
    52    15    14    1
    53    62    59    1
    54    62    63    1
    55    59    60    1
    56   104   106   ar
    57   108   106   ar
    58   108   109    1
    59    12    11    1
    60    63    65   ar
    61    24    25    1
    62    11     8    1
    63    13    14    1
    64    13     9   am
    65    67    65   ar
    66    67    69   ar
    67    14    17    1
    68    65    68   ar
    69    60    61    2
    70    60    72   am
    71     8     9    1
    72     8     7    1
    73     9    10    2
    74    17    18    1
    75    25    26    1
    76    69    71   ar
    77    72    73    1
    78    68    70   ar
    79     7     3   am
    80    96    97    2
    81    96    95    1
    82    18    93    1
    83     4     3    2
    84    71    70   ar
    85     3     2    1
    86    95    94    1
    87    73    74    1
    88    93    92    1
    89    75    74    2
    90    74    76   am
    91     2     1    1
    92     2     5    1
    93    85    84    2
    94     6     5    1
    95    92    89    1
    96    79    78    2
    97    76    77    1
    98    83    84    1
    99    83    82    1
   100    83    86    1
   101    78    82   am
   102    78    77    1
   103    89    88    1
   104    89    90    1
   105    77    80    1
   106    86    87    1
   107    90    91    2
   108    80    81    1
