@<TRIPOS>MOLECULE
tmp/7jdwA00.pdb
 126 118 0 0 0
SMALL
GASTEIGER

@<TRIPOS>ATOM
      1  N         55.6730   65.6950   17.7220 N.3   104  MET104     -0.1245
      2  CA        54.3430   65.1400   17.5270 C.3   104  MET104      0.1570
      3  C         54.2300   63.8910   16.6550 C.2   104  MET104      0.2261
      4  O         54.0060   63.9870   15.4620 O.2   104  MET104     -0.2867
      5  CB        53.4410   66.2390   16.9640 C.3   104  MET104      0.0387
      6  CG        53.5730   67.6050   17.6350 C.3   104  MET104      0.0595
      7  SD        53.1460   67.6140   19.3850 S.3   104  MET104     -0.1393
      8  CE        53.8700   69.1490   19.9380 C.3   104  MET104      0.0692
      9  N         51.2320   63.6300   14.1830 N.3   107  ASP107     -0.1239
     10  CA        51.2110   64.4290   12.9700 C.3   107  ASP107      0.1674
     11  C         51.7050   63.6620   11.7640 C.2   107  ASP107      0.2266
     12  O         51.2520   63.8980   10.6540 O.2   107  ASP107     -0.2867
     13  CB        52.0960   65.6640   13.1270 C.3   107  ASP107      0.1410
     14  CG        51.5240   66.6920   14.0900 C.2   107  ASP107      0.3668
     15  OD1       50.4760   66.4480   14.7280 O.co2 107  ASP107     -0.2456
     16  OD2       52.1450   67.7620   14.2100 O.co2 107  ASP107     -0.2456
     17  N         47.3540   63.6860   11.5820 N.3   193  ALA193     -0.1245
     18  CA        46.4910   64.1940   12.6410 C.3   193  ALA193      0.1562
     19  C         45.1550   64.7690   12.1720 C.2   193  ALA193      0.2260
     20  O         44.3790   65.2700   12.9840 O.2   193  ALA193     -0.2867
     21  CB        47.2460   65.2010   13.4790 C.3   193  ALA193      0.0290
     22  N         40.2770   74.5760   13.0960 N.3   237  ASN237     -0.1240
     23  CA        41.6540   74.8980   13.4220 C.3   237  ASN237      0.1653
     24  C         42.3350   74.7240   12.0620 C.2   237  ASN237      0.2266
     25  O         41.9590   73.8270   11.2780 O.2   237  ASN237     -0.2867
     26  CB        42.2390   73.9010   14.4280 C.3   237  ASN237      0.1155
     27  CG        43.5800   74.3700   14.9810 C.2   237  ASN237      0.2627
     28  OD1       44.6500   73.8830   14.5730 O.2   237  ASN237     -0.2716
     29  ND2       43.5410   75.3910   15.8450 N.am  237  ASN237     -0.0877
     30  N         44.8990   73.2740   11.1710 N.3   239  MET239     -0.1230
     31  CA        45.4040   71.9370   10.9490 C.3   239  MET239      0.1702
     32  C         45.0890   71.0100   12.1070 C.2   239  MET239      0.2592
     33  O         45.1960   71.3940   13.2660 O.2   239  MET239     -0.2718
     34  CB        46.9190   71.9740   10.7280 C.3   239  MET239      0.0401
     35  CG        47.7180   72.5150   11.8960 C.3   239  MET239      0.0596
     36  SD        49.4940   72.6010   11.5130 S.3   239  MET239     -0.1393
     37  CE        50.2600   72.6940   13.1560 C.3   239  MET239      0.0692
     38  N         44.7700   69.7650   11.7650 N.am  240  HIS240     -0.1976
     39  CA        44.4980   68.7150   12.7320 C.3   240  HIS240      0.1656
     40  C         43.1030   68.7420   13.2960 C.2   240  HIS240      0.2291
     41  O         42.5370   69.8100   13.5460 O.2   240  HIS240     -0.2864
     42  CB        45.5890   68.6830   13.8030 C.3   240  HIS240      0.0771
     43  CG        46.9670   68.6240   13.2210 C.ar  240  HIS240      0.0820
     44  ND1       48.1010   68.9510   13.9350 N.ar  240  HIS240     -0.2267
     45  CD2       47.3860   68.3100   11.9720 C.ar  240  HIS240      0.1154
     46  CE1       49.1580   68.8320   13.1470 C.ar  240  HIS240      0.1986
     47  NE2       48.7510   68.4460   11.9570 N.ar  240  HIS240     -0.2212
     48  N         42.0930   66.4820   16.0600 N.3   242  ASP242     -0.1225
     49  CA        42.0430   65.9930   17.4430 C.3   242  ASP242      0.1805
     50  C         41.7970   66.9410   18.6320 C.2   242  ASP242      0.2598
     51  O         41.8710   66.5090   19.7820 O.2   242  ASP242     -0.2718
     52  CB        43.1870   64.9990   17.7290 C.3   242  ASP242      0.1424
     53  CG        44.5600   65.5420   17.3910 C.2   242  ASP242      0.3668
     54  OD1       44.6730   66.6160   16.7750 O.co2 242  ASP242     -0.2456
     55  OD2       45.5530   64.8840   17.7410 O.co2 242  ASP242     -0.2456
     56  N         41.5360   68.2170   18.3470 N.am  243  ALA243     -0.1966
     57  CA        41.1880   69.2070   19.3730 C.3   243  ALA243      0.1728
     58  C         39.9290   69.8910   18.8340 C.2   243  ALA243      0.2616
     59  O         39.6340   71.0450   19.1370 O.2   243  ALA243     -0.2715
     60  CB        42.3080   70.2210   19.5990 C.3   243  ALA243      0.0334
     61  N         39.1730   69.1380   18.0430 N.am  244  THR244     -0.1951
     62  CA        37.9520   69.6270   17.4170 C.3   244  THR244      0.1897
     63  C         36.8850   68.5490   17.5070 C.2   244  THR244      0.2313
     64  O         35.7340   68.8340   17.7980 O.2   244  THR244     -0.2863
     65  CB        38.1840   69.9400   15.8920 C.3   244  THR244      0.1794
     66  OG1       39.2000   70.9380   15.7350 O.3   244  THR244     -0.2208
     67  CG2       36.9060   70.4360   15.2310 C.3   244  THR244      0.0378
     68  N         33.7120   74.8560   17.3470 N.3   259  ARG259     -0.1245
     69  CA        33.8610   74.3130   15.9870 C.3   259  ARG259      0.1563
     70  C         32.8570   73.2060   15.7260 C.2   259  ARG259      0.2260
     71  O         33.2250   72.0370   15.6070 O.2   259  ARG259     -0.2867
     72  CB        35.2770   73.7480   15.8210 C.3   259  ARG259      0.0307
     73  CG        36.3520   74.7730   16.1200 C.3   259  ARG259      0.0489
     74  CD        37.7160   74.1690   16.3560 C.3   259  ARG259      0.2205
     75  NE        38.6840   75.1860   16.7890 N.pl3 259  ARG259     -0.0865
     76  CZ        39.8770   74.9200   17.3200 C.cat 259  ARG259      0.5346
     77  NH1       40.2770   73.6590   17.5000 N.pl3 259  ARG259      0.1354
     78  NH2       40.6900   75.9200   17.6360 N.pl3 259  ARG259      0.1354
     79  N         48.9720   75.8560   17.5800 N.3   291  SER291     -0.1202
     80  CA        47.7730   75.4260   18.3010 C.3   291  SER291      0.2020
     81  C         46.8980   76.5070   18.9100 C.2   291  SER291      0.2619
     82  O         47.2840   77.6610   19.0320 O.2   291  SER291     -0.2717
     83  CB        48.1400   74.4550   19.4140 C.3   291  SER291      0.2103
     84  OG        48.2360   75.1340   20.6370 O.3   291  SER291     -0.2182
     85  N         45.6840   76.1070   19.2580 N.am  292  SER292     -0.1951
     86  CA        44.7550   76.9960   19.9170 C.3   292  SER292      0.1924
     87  C         44.7930   76.5970   21.4120 C.2   292  SER292      0.2314
     88  O         45.5920   75.7480   21.8230 O.2   292  SER292     -0.2863
     89  CB        43.3620   76.8030   19.3510 C.3   292  SER292      0.2116
     90  OG        42.7990   75.6100   19.8480 O.3   292  SER292     -0.2180
     91  N         42.5260   74.9710   22.9480 N.3   294  TRP294     -0.1227
     92  CA        41.7580   73.7430   23.0900 C.3   294  TRP294      0.1737
     93  C         42.5140   72.4300   23.2710 C.2   294  TRP294      0.2595
     94  O         41.9210   71.3570   23.2160 O.2   294  TRP294     -0.2718
     95  CB        40.7330   73.6460   21.9660 C.3   294  TRP294      0.0564
     96  CG        39.5680   74.5420   22.2210 C.ar  294  TRP294      0.0003
     97  CD1       39.2980   75.7410   21.6270 C.ar  294  TRP294      0.0946
     98  CD2       38.5020   74.3040   23.1580 C.ar  294  TRP294      0.0152
     99  NE1       38.1230   76.2650   22.1330 N.ar  294  TRP294     -0.2442
    100  CE2       37.6140   75.4010   23.0660 C.ar  294  TRP294      0.0810
    101  CE3       38.2110   73.2650   24.0540 C.ar  294  TRP294      0.0012
    102  CZ2       36.4500   75.4830   23.8520 C.ar  294  TRP294      0.0191
    103  CZ3       37.0570   73.3510   24.8260 C.ar  294  TRP294      0.0001
    104  CH2       36.1900   74.4520   24.7150 C.ar  294  TRP294      0.0015
    105  N         43.8020   72.5170   23.5760 N.am  295  LEU295     -0.1980
    106  CA        44.6100   71.3320   23.7990 C.3   295  LEU295      0.1596
    107  C         44.0520   70.5370   24.9580 C.2   295  LEU295      0.2287
    108  O         44.3380   69.3400   25.1120 O.2   295  LEU295     -0.2864
    109  CB        46.0650   71.7260   24.0700 C.3   295  LEU295      0.0297
    110  CG        46.7220   72.3450   22.8320 C.3   295  LEU295      0.0022
    111  CD1       48.1370   72.6880   23.1190 C.3   295  LEU295      0.0001
    112  CD2       46.6230   71.3720   21.6420 C.3   295  LEU295      0.0001
    113  N         52.7310   72.8360   20.3790 N.3   339  GLY339     -0.1210
    114  CA        51.6170   72.5630   19.4990 C.3   339  GLY339      0.1956
    115  C         50.7070   71.4050   19.8450 C.2   339  GLY339      0.2612
    116  O         49.7150   71.1900   19.1490 O.2   339  GLY339     -0.2717
    117  N         50.9940   70.6550   20.9040 N.am  340  GLY340     -0.1956
    118  CA        50.1180   69.5410   21.1910 C.3   340  GLY340      0.1869
    119  C         49.8180   69.1620   22.6220 C.2   340  GLY340      0.2309
    120  O         50.4380   69.6640   23.5510 O.2   340  GLY340     -0.2863
    121  N         48.4400   64.4380   20.5020 N.3   344  CYS344     -0.1235
    122  CA        49.4370   64.8860   19.5580 C.3   344  CYS344      0.1677
    123  C         50.8280   64.3560   19.8530 C.2   344  CYS344      0.2270
    124  O         51.5520   63.9630   18.9290 O.2   344  CYS344     -0.2867
    125  CB        49.4850   66.4040   19.5160 C.3   344  CYS344      0.0956
    126  SG        47.9740   67.1190   18.9240 S.3   344  CYS344     -0.0801
@<TRIPOS>BOND
     1    12    11    2
     2    34    31    1
     3    34    35    1
     4    31    30    1
     5    31    32    1
     6    25    24    2
     7    36    35    1
     8    36    37    1
     9    17    18    1
    10    11    10    1
    11    38    32   am
    12    38    39    1
    13    47    45   ar
    14    47    46   ar
    15    45    43   ar
    16    24    23    1
    17    32    33    2
    18    19    18    1
    19    19    20    2
    20    18    21    1
    21    39    40    1
    22    39    42    1
    23    10    13    1
    24    10     9    1
    25    22    23    1
    26    13    14    1
    27    46    44   ar
    28    43    42    1
    29    43    44   ar
    30    40    41    2
    31    23    26    1
    32    14    16   ar
    33    14    15   ar
    34    26    27    1
    35    28    27    2
    36    27    29   am
    37    67    65    1
    38     4     3    2
    39    71    70    2
    40    70    69    1
    41    66    65    1
    42    72    69    1
    43    72    73    1
    44    65    62    1
    45    69    68    1
    46    48    49    1
    47    73    74    1
    48    74    75    1
    49     3     2    1
    50    54    53   ar
    51    75    76    2
    52     5     2    1
    53     5     6    1
    54    76    77    1
    55    76    78    1
    56    53    52    1
    57    53    55   ar
    58    62    63    1
    59    62    61    1
    60    49    52    1
    61    49    50    1
    62    63    64    2
    63     2     1    1
    64    79    80    1
    65     6     7    1
    66    61    58   am
    67    80    81    1
    68    80    83    1
    69    56    50   am
    70    56    57    1
    71    50    51    2
    72    58    59    2
    73    58    57    1
    74    81    82    2
    75    81    85   am
    76   126   125    1
    77   124   123    2
    78   116   115    2
    79    85    86    1
    80    89    90    1
    81    89    86    1
    82    57    60    1
    83     7     8    1
    84    83    84    1
    85   114   115    1
    86   114   113    1
    87   125   122    1
    88   122   123    1
    89   122   121    1
    90   115   117   am
    91    86    87    1
    92   117   118    1
    93   118   119    1
    94    87    88    2
    95    97    99   ar
    96    97    96   ar
    97   112   110    1
    98    95    96    1
    99    95    92    1
   100    99   100   ar
   101    96    98   ar
   102   119   120    2
   103   110   111    1
   104   110   109    1
   105    91    92    1
   106   100    98   ar
   107   100   102   ar
   108    92    93    1
   109    98   101   ar
   110    94    93    2
   111    93   105   am
   112   105   106    1
   113   106   109    1
   114   106   107    1
   115   102   104   ar
   116   101   103   ar
   117   104   103   ar
   118   107   108    2
