@<TRIPOS>MOLECULE
tmp/7kmeB01.pdb
 231 228 0 0 0
SMALL
GASTEIGER

@<TRIPOS>ATOM
      1  N         22.2470   -6.9300   18.5650 N.3    43  HIS43      -0.1241
      2  CA        22.0870   -8.3400   18.1780 C.3    43  HIS43       0.1621
      3  C         21.3600   -8.4810   16.8540 C.2    43  HIS43       0.2264
      4  O         21.3430   -9.5920   16.3000 O.2    43  HIS43      -0.2867
      5  CB        21.4800   -9.1970   19.3150 C.3    43  HIS43       0.0745
      6  CG        19.9960   -9.1640   19.2840 C.ar   43  HIS43       0.0817
      7  ND1       19.1930   -8.5850   20.2260 N.ar   43  HIS43      -0.2268
      8  CD2       19.1820   -9.6740   18.3110 C.ar   43  HIS43       0.1154
      9  CE1       17.9380   -8.6760   19.7920 C.ar   43  HIS43       0.1986
     10  NE2       17.8910   -9.3880   18.6830 N.ar   43  HIS43      -0.2212
     11  N         25.6640  -11.0340   15.7210 N.3    47  TYR47      -0.1241
     12  CA        25.4400  -12.2160   16.5660 C.3    47  TYR47       0.1605
     13  C         26.2660  -13.3780   16.0370 C.2    47  TYR47       0.2264
     14  O         25.7390  -14.2880   15.3770 O.2    47  TYR47      -0.2867
     15  CB        23.9690  -12.5840   16.5590 C.3    47  TYR47       0.0534
     16  CG        23.6560  -13.4170   17.7680 C.ar   47  TYR47      -0.0201
     17  CD1       24.1950  -13.0350   18.9920 C.ar   47  TYR47      -0.0009
     18  CD2       22.8700  -14.5560   17.6490 C.ar   47  TYR47      -0.0009
     19  CE1       23.9590  -13.8110   20.1170 C.ar   47  TYR47       0.0417
     20  CE2       22.6330  -15.3390   18.7770 C.ar   47  TYR47       0.0417
     21  CZ        23.1830  -14.9670   20.0100 C.ar   47  TYR47       0.1957
     22  OH        22.9700  -15.7420   21.1020 O.3    47  TYR47      -0.2866
     23  N         25.0790  -17.1220   15.4990 N.3    50  TRP50      -0.1241
     24  CA        24.1100  -17.4460   14.4140 C.3    50  TRP50       0.1605
     25  C         24.6190  -16.9120   13.0760 C.2    50  TRP50       0.2264
     26  O         23.9350  -17.0100   12.0460 O.2    50  TRP50      -0.2867
     27  CB        22.7300  -16.8410   14.6980 C.3    50  TRP50       0.0550
     28  CG        22.0380  -17.5080   15.8830 C.ar   50  TRP50       0.0003
     29  CD1       22.5280  -18.5000   16.6320 C.ar   50  TRP50       0.0946
     30  CD2       20.7510  -17.1750   16.3860 C.ar   50  TRP50       0.0152
     31  NE1       21.5600  -18.7900   17.6390 N.ar   50  TRP50      -0.2442
     32  CE2       20.5280  -17.9970   17.4840 C.ar   50  TRP50       0.0810
     33  CE3       19.7710  -16.2440   16.0190 C.ar   50  TRP50       0.0012
     34  CZ2       19.3670  -17.9340   18.2640 C.ar   50  TRP50       0.0191
     35  CZ3       18.6020  -16.1930   16.8060 C.ar   50  TRP50       0.0001
     36  CH2       18.4110  -16.9980   17.8770 C.ar   50  TRP50       0.0015
     37  N         25.4330  -14.1240   12.1400 N.3    52  LYS52      -0.1245
     38  CA        24.9060  -12.8000   11.8030 C.3    52  LYS52       0.1561
     39  C         25.9380  -11.6990   12.0020 C.2    52  LYS52       0.2260
     40  O         26.4970  -11.5300   13.0910 O.2    52  LYS52      -0.2867
     41  CB        23.6720  -12.5560   12.6700 C.3    52  LYS52       0.0271
     42  CG        22.7360  -11.5270   12.0490 C.3    52  LYS52       0.0035
     43  CD        21.7210  -11.0360   13.0790 C.3    52  LYS52       0.0206
     44  CE        20.7800  -12.1110   13.5360 C.3    52  LYS52       0.1093
     45  NZ        19.5570  -11.4780   14.0960 N.3    52  LYS52      -0.1314
     46  N         28.0800  -10.3670   23.2690 N.3    92  TRP92      -0.1241
     47  CA        27.2580  -11.3530   22.6150 C.3    92  TRP92       0.1605
     48  C         27.6210  -12.7590   23.1380 C.2    92  TRP92       0.2264
     49  O         26.8010  -13.6900   23.0800 O.2    92  TRP92      -0.2867
     50  CB        27.4180  -11.2380   21.1230 C.3    92  TRP92       0.0550
     51  CG        28.8560  -11.3060   20.6790 C.ar   92  TRP92       0.0003
     52  CD1       29.6630  -10.2790   20.3790 C.ar   92  TRP92       0.0946
     53  CD2       29.5660  -12.5010   20.5170 C.ar   92  TRP92       0.0152
     54  NE1       30.9110  -10.8480   19.9720 N.ar   92  TRP92      -0.2442
     55  CE2       30.8240  -12.1590   20.0460 C.ar   92  TRP92       0.0810
     56  CE3       29.2390  -13.8450   20.7020 C.ar   92  TRP92       0.0012
     57  CZ2       31.7880  -13.1110   19.7070 C.ar   92  TRP92       0.0191
     58  CZ3       30.2190  -14.7960   20.3710 C.ar   92  TRP92       0.0001
     59  CH2       31.4330  -14.4460   19.8910 C.ar   92  TRP92       0.0015
     60  N         27.9660  -13.8010   26.1620 N.3    94  GLU94      -0.1231
     61  CA        27.2580  -14.3210   27.3300 C.3    94  GLU94       0.1699
     62  C         25.7940  -13.9280   27.4860 C.2    94  GLU94       0.2592
     63  O         24.9020  -14.7800   27.4550 O.2    94  GLU94      -0.2718
     64  CB        27.9640  -13.9030   28.5990 C.3    94  GLU94       0.0402
     65  CG        27.3810  -14.5320   29.8600 C.3    94  GLU94       0.1161
     66  CD        28.0580  -14.0070   31.1150 C.2    94  GLU94       0.3649
     67  OE1       29.2600  -13.5430   31.0460 O.co2  94  GLU94      -0.2457
     68  OE2       27.4170  -14.0340   32.2210 O.co2  94  GLU94      -0.2457
     69  N         25.4750  -12.6620   27.6860 N.am   95  ASN95      -0.1960
     70  CA        24.0580  -12.3810   27.9540 C.3    95  ASN95       0.1819
     71  C         23.4750  -11.2050   27.1670 C.2    95  ASN95       0.2621
     72  O         22.3810  -10.7150   27.4830 O.2    95  ASN95      -0.2715
     73  CB        23.8600  -12.1090   29.4490 C.3    95  ASN95       0.1195
     74  CG        24.9930  -11.3020   30.0800 C.2    95  ASN95       0.2630
     75  OD1       25.5160  -10.3880   29.4460 O.2    95  ASN95      -0.2716
     76  ND2       25.3980  -11.5840   31.3050 N.am   95  ASN95      -0.0877
     77  N         24.1760  -10.7660   26.1410 N.am   96  LEU96      -0.1977
     78  CA        23.6950   -9.6420   25.3190 C.3    96  LEU96       0.1596
     79  C         23.6670   -8.3710   26.1530 C.2    96  LEU96       0.2287
     80  O         22.6560   -7.6560   26.1720 O.2    96  LEU96      -0.2864
     81  CB        22.2540   -9.8940   24.8530 C.3    96  LEU96       0.0297
     82  CG        22.1170  -11.0480   23.8690 C.3    96  LEU96       0.0022
     83  CD1       20.8070  -10.9930   23.0760 C.3    96  LEU96       0.0001
     84  CD2       23.2420  -11.0770   22.8390 C.3    96  LEU96       0.0001
     85  N          6.7250  -11.8950   15.2260 N.3   143  ASN143     -0.1240
     86  CA         5.7860  -13.0270   15.2660 C.3   143  ASN143      0.1653
     87  C          4.7050  -12.6860   16.2910 C.2   143  ASN143      0.2266
     88  O          4.9570  -12.1410   17.3860 O.2   143  ASN143     -0.2867
     89  CB         6.4940  -14.3330   15.6010 C.3   143  ASN143      0.1155
     90  CG         7.6910  -14.5720   14.7060 C.2   143  ASN143      0.2627
     91  OD1        7.8770  -13.9020   13.6880 O.2   143  ASN143     -0.2716
     92  ND2        8.5370  -15.4980   15.1650 N.am  143  ASN143     -0.0877
     93  N          4.9440  -17.7000   19.5440 N.3   146  GLU146     -0.1245
     94  CA         6.3120  -18.1960   19.7350 C.3   146  GLU146      0.1567
     95  C          6.6840  -19.2300   18.6730 C.2   146  GLU146      0.2260
     96  O          7.7640  -19.2350   18.0430 O.2   146  GLU146     -0.2867
     97  CB         6.5700  -18.8020   21.1140 C.3   146  GLU146      0.0388
     98  CG         8.0340  -19.2210   21.2870 C.3   146  GLU146      0.1160
     99  CD         8.3220  -20.0660   22.4870 C.2   146  GLU146      0.3649
    100  OE1        7.6540  -19.8090   23.4970 O.co2 146  GLU146     -0.2457
    101  OE2        9.2010  -20.9020   22.4490 O.co2 146  GLU146     -0.2457
    102  N         20.1260  -16.9330   33.5280 N.3   172  ILE172     -0.1245
    103  CA        21.0840  -15.9960   32.8930 C.3   172  ILE172      0.1561
    104  C         21.3520  -14.8070   33.8230 C.2   172  ILE172      0.2260
    105  O         20.6160  -14.5630   34.7860 O.2   172  ILE172     -0.2867
    106  CB        20.5120  -15.5600   31.5190 C.3   172  ILE172      0.0252
    107  CG1       20.6760  -16.6970   30.4900 C.3   172  ILE172      0.0019
    108  CG2       21.1890  -14.3110   30.9060 C.3   172  ILE172      0.0019
    109  CD1       19.5940  -16.7020   29.4100 C.3   172  ILE172      0.0001
    110  N          3.9060   -9.8980   24.9020 N.3   192  ASP192     -0.1225
    111  CA         5.3860   -9.8530   24.9220 C.3   192  ASP192      0.1805
    112  C          5.8390   -9.5720   23.5010 C.2   192  ASP192      0.2598
    113  O          5.0090   -9.5080   22.5700 O.2   192  ASP192     -0.2718
    114  CB         5.8400  -11.1390   25.6000 C.3   192  ASP192      0.1424
    115  CG         7.3070  -11.4040   25.7500 C.2   192  ASP192      0.3668
    116  OD1        8.0730  -10.4250   25.6270 O.co2 192  ASP192     -0.2456
    117  OD2        7.7500  -12.5570   26.0020 O.co2 192  ASP192     -0.2456
    118  N          7.0490   -9.0600   23.3870 N.am  193  ALA193     -0.1966
    119  CA         7.7020   -8.9950   22.0860 C.3   193  ALA193      0.1728
    120  C          7.9510  -10.5030   21.7630 C.2   193  ALA193      0.2616
    121  O          7.7500  -11.4210   22.5500 O.2   193  ALA193     -0.2715
    122  CB         9.0090   -8.2390   22.0970 C.3   193  ALA193      0.0334
    123  N          8.5260  -10.7080   20.6150 N.am  194  CYS194     -0.1954
    124  CA         8.8530  -11.9940   20.0260 C.3   194  CYS194      0.1843
    125  C          9.8230  -11.6620   18.8820 C.2   194  CYS194      0.2625
    126  O         10.2230  -10.4860   18.7560 O.2   194  CYS194     -0.2714
    127  CB         7.6180  -12.7560   19.5550 C.3   194  CYS194      0.0997
    128  SG         7.9520  -14.5440   19.4230 S.3   194  CYS194     -0.0797
    129  N         10.4330  -12.7200   18.4170 N.am  195  GLU195     -0.1977
    130  CA        11.3320  -12.6230   17.2520 C.3   195  GLU195      0.1602
    131  C         10.7570  -11.6570   16.2550 C.2   195  GLU195      0.2287
    132  O          9.5420  -11.6500   16.0370 O.2   195  GLU195     -0.2864
    133  CB        11.3780  -13.9700   16.5580 C.3   195  GLU195      0.0415
    134  CG        12.6320  -14.2880   15.7690 C.3   195  GLU195      0.1163
    135  CD        12.8610  -15.7570   15.9140 C.2   195  GLU195      0.3649
    136  OE1       12.0570  -16.5700   15.3330 O.co2 195  GLU195     -0.2457
    137  OE2       13.8370  -16.1810   16.6270 O.co2 195  GLU195     -0.2457
    138  N         12.5990   -7.4460   17.9370 N.3   198  SER198     -0.1217
    139  CA        13.9670   -7.1560   18.3830 C.3   198  SER198      0.1889
    140  C         14.4180   -5.7920   17.8560 C.2   198  SER198      0.2288
    141  O         14.0980   -5.4450   16.7220 O.2   198  SER198     -0.2866
    142  CB        14.8830   -8.2060   17.7290 C.3   198  SER198      0.2089
    143  OG        15.1470   -9.2710   18.6160 O.3   198  SER198     -0.2183
    144  N         13.9410   -3.7570   22.8910 N.3   218  VAL218     -0.1231
    145  CA        13.6710   -5.1970   22.8300 C.3   218  VAL218      0.1692
    146  C         14.9950   -5.9410   22.5910 C.2   218  VAL218      0.2593
    147  O         15.7390   -5.7110   21.6220 O.2   218  VAL218     -0.2718
    148  CB        12.6180   -5.5000   21.7440 C.3   218  VAL218      0.0266
    149  CG1       12.3180   -7.0240   21.6300 C.3   218  VAL218      0.0020
    150  CG2       11.3350   -4.7220   21.9540 C.3   218  VAL218      0.0020
    151  N         15.3790   -6.6710   23.6420 N.am  219  SER219     -0.1938
    152  CA        16.6650   -7.3520   23.6850 C.3   219  SER219      0.2055
    153  C         16.5590   -8.8740   23.4920 C.2   219  SER219      0.2643
    154  O         17.1610   -9.3730   22.5260 O.2   219  SER219     -0.2714
    155  CB        17.4560   -7.0190   24.9580 C.3   219  SER219      0.2130
    156  OG        18.8380   -7.3500   24.7370 O.3   219  SER219     -0.2179
    157  N         16.0340   -9.5670   24.4780 N.am  220  TRP220     -0.1959
    158  CA        16.0010  -11.0400   24.5700 C.3   220  TRP220      0.1771
    159  C         14.9300  -11.4710   25.5520 C.2   220  TRP220      0.2620
    160  O         14.2820  -10.6910   26.2690 O.2   220  TRP220     -0.2715
    161  CB        17.3500  -11.6860   24.9260 C.3   220  TRP220      0.0590
    162  CG        17.8850  -11.3350   26.2710 C.ar  220  TRP220      0.0006
    163  CD1       18.6040  -10.2150   26.5710 C.ar  220  TRP220      0.0946
    164  CD2       17.7520  -12.0490   27.5190 C.ar  220  TRP220      0.0152
    165  NE1       18.9150  -10.1730   27.9100 N.ar  220  TRP220     -0.2442
    166  CE2       18.3910  -11.2740   28.5180 C.ar  220  TRP220      0.0810
    167  CE3       17.0620  -13.2070   27.8930 C.ar  220  TRP220      0.0012
    168  CZ2       18.4400  -11.6590   29.8540 C.ar  220  TRP220      0.0191
    169  CZ3       17.0800  -13.5860   29.2210 C.ar  220  TRP220      0.0001
    170  CH2       17.7290  -12.8100   30.1930 C.ar  220  TRP220      0.0015
    171  N         14.6330  -12.7600   25.4100 N.am  221  GLY221     -0.1940
    172  CA        13.6740  -13.4690   26.2660 C.3   221  GLY221      0.2014
    173  C         13.8620  -14.9880   25.9930 C.2   221  GLY221      0.2639
    174  O         14.3690  -15.4420   24.9600 O.2   221  GLY221     -0.2714
    175  N         13.2440  -15.7210   26.8630 N.am  222  GLU222     -0.1963
    176  CA        13.1480  -17.1890   26.9090 C.3   222  GLU222      0.1733
    177  C         11.7550  -17.5640   26.4560 C.2   222  GLU222      0.2617
    178  O         10.7370  -17.4400   27.1750 O.2   222  GLU222     -0.2715
    179  CB        13.4330  -17.6220   28.3550 C.3   222  GLU222      0.0429
    180  CG        14.8240  -17.1740   28.8390 C.3   222  GLU222      0.1163
    181  CD        15.4120  -17.7270   30.1040 C.2   222  GLU222      0.3649
    182  OE1       14.6180  -18.2040   30.9430 O.co2 222  GLU222     -0.2457
    183  OE2       16.6280  -17.7260   30.2900 O.co2 222  GLU222     -0.2457
    184  N         11.6850  -17.7400   25.1470 N.am  223  GLY223     -0.1940
    185  CA        10.3600  -17.9720   24.5200 C.3   223  GLY223      0.2014
    186  C          9.8460  -16.5660   24.1240 C.2   223  GLY223      0.2639
    187  O         10.6920  -15.6560   24.0390 O.2   223  GLY223     -0.2714
    188  N          8.5620  -16.4660   24.0290 N.am  224  CYS224     -0.1967
    189  CA         7.6410  -15.4020   23.7670 C.3   224  CYS224      0.1712
    190  C          6.3560  -15.6910   24.5680 C.2   224  CYS224      0.2296
    191  O          5.6160  -16.6170   24.2030 O.2   224  CYS224     -0.2864
    192  CB         7.2630  -15.1760   22.3030 C.3   224  CYS224      0.0983
    193  SG         8.7070  -15.0820   21.2330 S.3   224  CYS224     -0.0798
    194  N          5.7030  -16.7050   27.5650 N.3   226  ARG226     -0.1245
    195  CA         5.7250  -17.9200   28.3950 C.3   226  ARG226      0.1563
    196  C          5.4390  -17.5480   29.8350 C.2   226  ARG226      0.2260
    197  O          6.0190  -16.5970   30.3470 O.2   226  ARG226     -0.2867
    198  CB         7.1190  -18.5340   28.3250 C.3   226  ARG226      0.0307
    199  CG         7.2300  -19.4970   27.1610 C.3   226  ARG226      0.0489
    200  CD         8.6120  -19.8690   26.7810 C.3   226  ARG226      0.2205
    201  NE         8.9440  -21.2530   26.7300 N.pl3 226  ARG226     -0.0865
    202  CZ         9.8070  -21.8940   25.9800 C.cat 226  ARG226      0.5346
    203  NH1       10.0170  -22.0730   24.7420 N.pl3 226  ARG226      0.1354
    204  NH2       10.9940  -21.8990   26.6030 N.pl3 226  ARG226      0.1354
    205  N         10.1640  -10.4260   29.2670 N.3   231  GLY231     -0.1210
    206  CA        10.9490   -9.7570   28.2170 C.3   231  GLY231      0.1956
    207  C         11.9980   -8.8940   28.9130 C.2   231  GLY231      0.2612
    208  O         11.7100   -8.2800   29.9480 O.2   231  GLY231     -0.2717
    209  N         13.1870   -8.9210   28.3200 N.am  232  PHE232     -0.1962
    210  CA        14.3760   -8.1620   28.7690 C.3   232  PHE232      0.1771
    211  C         14.6260   -7.1050   27.6880 C.2   232  PHE232      0.2619
    212  O         14.3890   -7.3350   26.4860 O.2   232  PHE232     -0.2715
    213  CB        15.5800   -9.1070   28.9920 C.3   232  PHE232      0.0574
    214  CG        15.4350   -9.8410   30.3180 C.ar  232  PHE232     -0.0200
    215  CD1       14.6290  -10.9690   30.3930 C.ar  232  PHE232     -0.0042
    216  CD2       16.0640   -9.3480   31.4700 C.ar  232  PHE232     -0.0042
    217  CE1       14.5010  -11.6460   31.6000 C.ar  232  PHE232     -0.0003
    218  CE2       15.9050  -10.0050   32.6920 C.ar  232  PHE232     -0.0003
    219  CZ        15.1250  -11.1570   32.7550 C.ar  232  PHE232     -0.0000
    220  N         15.0780   -5.9770   28.1580 N.am  233  TYR233     -0.1974
    221  CA        15.2660   -4.7760   27.3480 C.3   233  TYR233      0.1639
    222  C         16.5120   -4.0360   27.7300 C.2   233  TYR233      0.2290
    223  O         16.8190   -3.9580   28.9160 O.2   233  TYR233     -0.2864
    224  CB        14.1030   -3.8140   27.7260 C.3   233  TYR233      0.0560
    225  CG        12.7400   -4.3830   27.3970 C.ar  233  TYR233     -0.0198
    226  CD1       12.2500   -4.1840   26.1190 C.ar  233  TYR233     -0.0009
    227  CD2       11.9780   -5.0890   28.3530 C.ar  233  TYR233     -0.0009
    228  CE1       11.0370   -4.7440   25.7440 C.ar  233  TYR233      0.0417
    229  CE2       10.7520   -5.6560   27.9680 C.ar  233  TYR233      0.0417
    230  CZ        10.3000   -5.4870   26.6500 C.ar  233  TYR233      0.1957
    231  OH         9.1430   -6.0590   26.2200 O.3   233  TYR233     -0.2866
@<TRIPOS>BOND
     1    38    39    1
     2    38    37    1
     3    38    41    1
     4    39    40    2
     5    26    25    2
     6    42    41    1
     7    42    43    1
     8    25    24    1
     9    43    44    1
    10    44    45    1
    11    91    90    2
    12    24    27    1
    13    24    23    1
    14    27    28    1
    15    90    92   am
    16    90    89    1
    17    85    86    1
    18    86    89    1
    19    86    87    1
    20   136   135   ar
    21    14    13    2
    22    11    12    1
    23   134   135    1
    24   134   133    1
    25    28    30   ar
    26    28    29   ar
    27   135   137   ar
    28    33    30   ar
    29    33    35   ar
    30    13    12    1
    31   132   131    2
    32   131   130    1
    33    87    88    2
    34     4     3    2
    35    30    32   ar
    36   133   130    1
    37    15    12    1
    38    15    16    1
    39    29    31   ar
    40   141   140    2
    41    35    36   ar
    42     3     2    1
    43   130   129    1
    44    32    31   ar
    45    32    34   ar
    46    18    16   ar
    47    18    20   ar
    48   142   139    1
    49   142   143    1
    50    16    17   ar
    51   140   139    1
    52    36    34   ar
    53   138   139    1
    54    96    95    2
    55     2     1    1
    56     2     5    1
    57     8    10   ar
    58     8     6   ar
    59   129   125   am
    60    95    94    1
    61    10     9   ar
    62   126   125    2
    63    20    21   ar
    64   125   124    1
    65    17    19   ar
    66     6     5    1
    67     6     7   ar
    68   128   127    1
    69   128   193    1
    70    93    94    1
    71   127   124    1
    72    57    59   ar
    73    57    55   ar
    74    94    97    1
    75     9     7   ar
    76    59    58   ar
    77    54    55   ar
    78    54    52   ar
    79    21    19   ar
    80    21    22    1
    81   124   123    1
    82    55    53   ar
    83    58    56   ar
    84    52    51   ar
    85    53    51   ar
    86    53    56   ar
    87   123   120   am
    88    51    50    1
    89    97    98    1
    90    50    47    1
    91   193   192    1
    92    98    99    1
    93   147   146    2
    94   149   148    1
    95   148   150    1
    96   148   145    1
    97   120   119    1
    98   120   121    2
    99   119   122    1
   100   119   118    1
   101   192   189    1
   102   101    99   ar
   103    99   100   ar
   104   154   153    2
   105   113   112    2
   106   146   145    1
   107   146   151   am
   108    47    48    1
   109    47    46    1
   110   145   144    1
   111    84    82    1
   112    83    82    1
   113    49    48    2
   114   118   112   am
   115   153   152    1
   116   153   157   am
   117   112   111    1
   118   151   152    1
   119   152   155    1
   120   189   188    1
   121   189   190    1
   122    82    81    1
   123   188   186   am
   124   187   186    2
   125   186   185    1
   126   191   190    2
   127   157   158    1
   128   185   184    1
   129   158   161    1
   130   158   159    1
   131   156   155    1
   132   203   202    1
   133    81    78    1
   134   110   111    1
   135   111   114    1
   136   161   162    1
   137   174   173    2
   138   184   177   am
   139    78    77    1
   140    78    79    1
   141   171   159   am
   142   171   172    1
   143   159   160    2
   144   114   115    1
   145   116   115   ar
   146   228   226   ar
   147   228   230   ar
   148   115   117   ar
   149   202   204    1
   150   202   201    2
   151   173   172    1
   152   173   175   am
   153   226   225   ar
   154    77    71   am
   155    79    80    2
   156    60    61    1
   157   231   230    1
   158   162   163   ar
   159   162   164   ar
   160   177   176    1
   161   177   178    2
   162   212   211    2
   163   163   165   ar
   164   230   229   ar
   165   201   200    1
   166   200   199    1
   167   175   176    1
   168   176   179    1
   169   199   198    1
   170    71    72    2
   171    71    70    1
   172    61    62    1
   173    61    64    1
   174   221   224    1
   175   221   222    1
   176   221   220    1
   177   225   224    1
   178   225   227   ar
   179    63    62    2
   180    62    69   am
   181   164   167   ar
   182   164   166   ar
   183   194   195    1
   184    69    70    1
   185   211   220   am
   186   211   210    1
   187   222   223    2
   188   167   169   ar
   189   165   166   ar
   190    70    73    1
   191   229   227   ar
   192   206   207    1
   193   206   205    1
   194   209   210    1
   195   209   207   am
   196   198   195    1
   197   179   180    1
   198   195   196    1
   199   166   168   ar
   200    64    65    1
   201   210   213    1
   202   180   181    1
   203   207   208    2
   204   213   214    1
   205   169   170   ar
   206   109   107    1
   207    75    74    2
   208    73    74    1
   209   196   197    2
   210   168   170   ar
   211    65    66    1
   212    74    76   am
   213   181   183   ar
   214   181   182   ar
   215   214   215   ar
   216   214   216   ar
   217   215   217   ar
   218   107   106    1
   219   108   106    1
   220    67    66   ar
   221    66    68   ar
   222   216   218   ar
   223   106   103    1
   224   217   219   ar
   225   218   219   ar
   226   103   102    1
   227   103   104    1
   228   104   105    2
