@<TRIPOS>MOLECULE
tmp/7kmeB00.pdb
 174 166 0 0 0
SMALL
GASTEIGER

@<TRIPOS>ATOM
      1  N         11.6370    0.0390   10.5320 N.3    17  MET17      -0.1245
      2  CA        11.7990   -1.3590   10.1040 C.3    17  MET17       0.1570
      3  C         13.2010   -1.5130    9.5070 C.2    17  MET17       0.2261
      4  O         13.6290   -0.8240    8.5670 O.2    17  MET17      -0.2867
      5  CB        10.6910   -1.8730    9.2010 C.3    17  MET17       0.0387
      6  CG        11.1250   -3.1470    8.4840 C.3    17  MET17       0.0595
      7  SD         9.8380   -3.6590    7.2930 S.3    17  MET17      -0.1393
      8  CE         8.3360   -3.5840    8.2530 C.3    17  MET17       0.0692
      9  N         15.4010   -3.6960    7.3800 N.3    19  PHE19      -0.1241
     10  CA        15.0940   -4.4990    6.1920 C.3    19  PHE19       0.1605
     11  C         16.3380   -4.9360    5.4100 C.2    19  PHE19       0.2264
     12  O         17.2420   -4.1750    5.0230 O.2    19  PHE19      -0.2867
     13  CB        14.1230   -3.7350    5.2970 C.3    19  PHE19       0.0534
     14  CG        13.3980   -4.5330    4.2470 C.ar   19  PHE19      -0.0203
     15  CD1       12.2390   -5.2430    4.6010 C.ar   19  PHE19      -0.0042
     16  CD2       13.8330   -4.5090    2.9160 C.ar   19  PHE19      -0.0042
     17  CE1       11.4640   -5.8800    3.6410 C.ar   19  PHE19      -0.0003
     18  CE2       13.0900   -5.1600    1.9360 C.ar   19  PHE19      -0.0003
     19  CZ        11.9160   -5.8440    2.3220 C.ar   19  PHE19      -0.0000
     20  N         18.1490   -6.2180    2.1330 N.3    21  LYS21      -0.1245
     21  CA        18.1500   -5.9190    0.7030 C.3    21  LYS21       0.1561
     22  C         17.9150   -7.2370   -0.0290 C.2    21  LYS21       0.2260
     23  O         16.9770   -7.2840   -0.8450 O.2    21  LYS21      -0.2867
     24  CB        19.4060   -5.2550    0.2030 C.3    21  LYS21       0.0271
     25  CG        19.3900   -3.7360    0.0530 C.3    21  LYS21       0.0035
     26  CD        20.8050   -3.1780    0.0440 C.3    21  LYS21       0.0206
     27  CE        21.0620   -1.9920   -0.8420 C.3    21  LYS21       0.1093
     28  NZ        21.9170   -2.2980   -2.0310 N.3    21  LYS21      -0.1314
     29  N         14.8930  -10.1260    0.6880 N.3    24  GLN24      -0.1231
     30  CA        14.0900   -8.9710    1.0850 C.3    24  GLN24       0.1698
     31  C         13.2330   -9.3640    2.2880 C.2    24  GLN24       0.2592
     32  O         12.1180   -9.8780    2.0540 O.2    24  GLN24      -0.2718
     33  CB        13.1390   -8.4540   -0.0050 C.3    24  GLN24       0.0381
     34  CG        13.8360   -7.8540   -1.1990 C.3    24  GLN24       0.0905
     35  CD        13.2670   -6.5940   -1.7970 C.2    24  GLN24       0.2608
     36  OE1       14.0220   -5.8170   -2.3930 O.2    24  GLN24      -0.2717
     37  NE2       11.9610   -6.3590   -1.6900 N.am   24  GLN24      -0.0878
     38  N         13.7670   -9.0970    3.4660 N.am   25  GLU25      -0.1966
     39  CA        13.0660   -9.5030    4.7000 C.3    25  GLU25       0.1733
     40  C         13.3150   -8.5350    5.8530 C.2    25  GLU25       0.2616
     41  O         14.2800   -7.7520    5.8190 O.2    25  GLU25      -0.2715
     42  CB        13.6300  -10.8670    5.1490 C.3    25  GLU25       0.0429
     43  CG        15.1290  -11.0040    4.9020 C.3    25  GLU25       0.1163
     44  CD        15.8140  -12.2550    5.3640 C.2    25  GLU25       0.3649
     45  OE1       15.0170  -13.1170    5.8000 O.co2  25  GLU25      -0.2457
     46  OE2       17.0390  -12.3410    5.3790 O.co2  25  GLU25      -0.2457
     47  N         12.3450   -8.6080    6.7500 N.am   26  LEU26      -0.1977
     48  CA        12.3520   -7.8520    8.0060 C.3    26  LEU26       0.1596
     49  C         13.4870   -8.4600    8.8490 C.2    26  LEU26       0.2287
     50  O         13.5540   -9.7000    8.8990 O.2    26  LEU26      -0.2864
     51  CB        10.9820   -7.8760    8.6860 C.3    26  LEU26       0.0297
     52  CG        10.6650   -6.9930    9.8850 C.3    26  LEU26       0.0022
     53  CD1        9.1640   -6.6600    9.9360 C.3    26  LEU26       0.0001
     54  CD2       10.9220   -7.7590   11.1850 C.3    26  LEU26       0.0001
     55  N         18.6750   -1.6910    4.7140 N.3    60  LEU60      -0.1245
     56  CA        17.8050   -0.5510    4.3980 C.3    60  LEU60       0.1561
     57  C         16.8870   -0.3280    5.6330 C.2    60  LEU60       0.2260
     58  O         16.4660   -1.2790    6.3080 O.2    60  LEU60      -0.2867
     59  CB        16.8790   -0.8830    3.2150 C.3    60  LEU60       0.0270
     60  CG        17.2020   -0.2960    1.8390 C.3    60  LEU60       0.0019
     61  CD1       18.6960   -0.2480    1.5140 C.3    60  LEU60       0.0001
     62  CD2       16.5440   -1.1200    0.7280 C.3    60  LEU60       0.0001
     63  N         13.3280    1.4170    6.7030 N.3    62  ARG62      -0.1245
     64  CA        12.0470    1.9270    6.2000 C.3    62  ARG62       0.1563
     65  C         11.2660    2.5680    7.3410 C.2    62  ARG62       0.2260
     66  O         10.9070    1.9130    8.3230 O.2    62  ARG62      -0.2867
     67  CB        11.2910    0.7470    5.5830 C.3    62  ARG62       0.0307
     68  CG        12.2240   -0.0440    4.6540 C.3    62  ARG62       0.0489
     69  CD        11.6440   -1.2990    3.9940 C.3    62  ARG62       0.2205
     70  NE        10.3860   -1.0880    3.3290 N.pl3  62  ARG62      -0.0865
     71  CZ         9.7750   -1.9540    2.5200 C.cat  62  ARG62       0.5346
     72  NH1       10.3630   -3.0760    2.0830 N.pl3  62  ARG62       0.1354
     73  NH2        8.4930   -1.8140    2.1850 N.pl3  62  ARG62       0.1354
     74  N          3.1820   -4.3020    7.3190 N.3    68  ARG68      -0.1231
     75  CA         4.4110   -5.0720    7.4480 C.3    68  ARG68       0.1694
     76  C          5.0420   -5.3600    6.0700 C.2    68  ARG68       0.2593
     77  O          6.2570   -5.2120    5.8650 O.2    68  ARG68      -0.2718
     78  CB         4.0310   -6.3710    8.1300 C.3    68  ARG68       0.0321
     79  CG         5.1180   -7.0670    8.8870 C.3    68  ARG68       0.0489
     80  CD         5.4530   -8.3210    8.1090 C.3    68  ARG68       0.2205
     81  NE         4.2810   -9.0390    7.7360 N.pl3  68  ARG68      -0.0865
     82  CZ         4.0010  -10.2790    7.3130 C.cat  68  ARG68       0.5346
     83  NH1        4.9050  -11.2050    6.9200 N.pl3  68  ARG68       0.1354
     84  NH2        2.7410  -10.6480    7.1930 N.pl3  68  ARG68       0.1354
     85  N          4.2060   -5.7270    5.1430 N.am   69  THR69      -0.1939
     86  CA         4.6550   -6.2400    3.8490 C.3    69  THR69       0.2028
     87  C          4.4900   -5.2730    2.6650 C.2    69  THR69       0.2642
     88  O          5.3820   -5.2030    1.7860 O.2    69  THR69      -0.2714
     89  CB         3.8670   -7.5310    3.7270 C.3    69  THR69       0.1808
     90  OG1        4.7790   -8.6090    3.9130 O.3    69  THR69      -0.2208
     91  CG2        3.1300   -7.6870    2.3940 C.3    69  THR69       0.0379
     92  N          3.5780   -4.3900    2.6130 N.am   70  ARG70      -0.1963
     93  CA         3.2970   -3.4510    1.5360 C.3    70  ARG70       0.1729
     94  C          4.3160   -2.3060    1.4280 C.2    70  ARG70       0.2616
     95  O          4.8750   -1.8390    2.4300 O.2    70  ARG70      -0.2715
     96  CB         1.9860   -2.7840    1.7430 C.3    70  ARG70       0.0348
     97  CG         0.8360   -3.6650    1.3350 C.3    70  ARG70       0.0492
     98  CD        -0.4780   -2.9180    1.5490 C.3    70  ARG70       0.2205
     99  NE        -0.6930   -1.8880    0.5450 N.pl3  70  ARG70      -0.0865
    100  CZ        -0.9830   -0.6220    0.8520 C.cat  70  ARG70       0.5346
    101  NH1       -1.0980   -0.2060    2.1200 N.pl3  70  ARG70       0.1354
    102  NH2       -1.1340    0.2510   -0.1470 N.pl3  70  ARG70       0.1354
    103  N          4.5460   -1.8830    0.1810 N.am   71  TYR71      -0.1974
    104  CA         5.3850   -0.6950   -0.0840 C.3    71  TYR71       0.1639
    105  C          4.3130    0.4100    0.0240 C.2    71  TYR71       0.2290
    106  O          3.4500    0.5560   -0.8380 O.2    71  TYR71      -0.2864
    107  CB         6.1030   -0.7970   -1.4490 C.3    71  TYR71       0.0560
    108  CG         6.7300    0.5470   -1.7280 C.ar   71  TYR71      -0.0198
    109  CD1        7.6820    1.0420   -0.8450 C.ar   71  TYR71      -0.0009
    110  CD2        6.3340    1.3070   -2.8300 C.ar   71  TYR71      -0.0009
    111  CE1        8.2300    2.3040   -1.0500 C.ar   71  TYR71       0.0417
    112  CE2        6.8900    2.5710   -3.0440 C.ar   71  TYR71       0.0417
    113  CZ         7.8400    3.0680   -2.1530 C.ar   71  TYR71       0.1957
    114  OH         8.4070    4.2830   -2.3670 O.3    71  TYR71      -0.2866
    115  N          3.5190    3.3370   -0.7410 N.3    73  ARG73      -0.1245
    116  CA         4.0540    4.2200   -1.8170 C.3    73  ARG73       0.1563
    117  C          4.2560    5.6820   -1.5120 C.2    73  ARG73       0.2260
    118  O          5.2930    6.2550   -1.8470 O.2    73  ARG73      -0.2867
    119  CB         3.2440    4.2780   -3.0870 C.3    73  ARG73       0.0307
    120  CG         3.9460    5.0540   -4.1990 C.3    73  ARG73       0.0489
    121  CD         3.8020    4.3310   -5.5200 C.3    73  ARG73       0.2205
    122  NE         2.5990    4.6100   -6.3530 N.pl3  73  ARG73      -0.0865
    123  CZ         1.2660    4.3270   -6.1950 C.cat  73  ARG73       0.5346
    124  NH1        0.7590    3.6870   -5.1310 N.pl3  73  ARG73       0.1354
    125  NH2        0.3490    4.6600   -7.1090 N.pl3  73  ARG73       0.1354
    126  N          5.6980    5.8490    3.3990 N.3    76  GLU76      -0.1231
    127  CA         7.0140    5.4640    3.9910 C.3    76  GLU76       0.1699
    128  C          8.1870    5.9470    3.1290 C.2    76  GLU76       0.2592
    129  O          8.0180    6.3580    1.9750 O.2    76  GLU76      -0.2718
    130  CB         7.2000    3.9360    4.1940 C.3    76  GLU76       0.0402
    131  CG         6.6620    3.0550    3.0660 C.3    76  GLU76       0.1161
    132  CD         7.4180    1.7390    2.9050 C.2    76  GLU76       0.3649
    133  OE1        8.7010    1.7500    2.9250 O.co2  76  GLU76      -0.2457
    134  OE2        6.7590    0.6430    2.7490 O.co2  76  GLU76      -0.2457
    135  N          9.2350    6.1040    3.9070 N.am   77  LYS77      -0.1966
    136  CA        10.4940    6.5910    3.3260 C.3    77  LYS77       0.1728
    137  C         11.4580    5.4290    3.5930 C.2    77  LYS77       0.2616
    138  O         11.3730    4.8660    4.7020 O.2    77  LYS77      -0.2715
    139  CB        10.9240    7.8570    4.0290 C.3    77  LYS77       0.0311
    140  CG        10.1660    9.1150    3.5830 C.3    77  LYS77       0.0038
    141  CD        10.7850    9.7120    2.3240 C.3    77  LYS77       0.0206
    142  CE         9.9920    9.4710    1.0580 C.3    77  LYS77       0.1093
    143  NZ         8.5740    9.9340    1.1460 N.3    77  LYS77      -0.1314
    144  N         12.3000    5.1610    2.6500 N.am   78  ILE78      -0.1963
    145  CA        13.2760    4.0550    2.7390 C.3    78  ILE78       0.1727
    146  C         14.6460    4.7100    2.6970 C.2    78  ILE78       0.2617
    147  O         14.7980    5.5390    1.7730 O.2    78  ILE78      -0.2715
    148  CB        13.0610    3.0620    1.5500 C.3    78  ILE78       0.0290
    149  CG1       11.5940    2.5770    1.4750 C.3    78  ILE78       0.0022
    150  CG2       14.0530    1.8750    1.6060 C.3    78  ILE78       0.0023
    151  CD1       11.3310    1.4360    0.4540 C.3    78  ILE78       0.0001
    152  N         15.4790    4.5290    3.7600 N.am   79  SER79      -0.1936
    153  CA        16.7890    5.1810    3.6430 C.3    79  SER79       0.2055
    154  C         17.9280    4.1990    3.6640 C.2    79  SER79       0.2642
    155  O         17.7690    3.0380    4.0850 O.2    79  SER79      -0.2714
    156  CB        17.1440    6.1150    4.8200 C.3    79  SER79       0.2130
    157  OG        16.0160    6.7580    5.3630 O.3    79  SER79      -0.2179
    158  N         19.0290    4.7640    3.2330 N.am   80  MET80      -0.1976
    159  CA        20.3050    4.0930    3.2000 C.3    80  MET80       0.1605
    160  C         21.1100    4.5350    4.4170 C.2    80  MET80       0.2287
    161  O         20.8980    5.6240    4.9740 O.2    80  MET80      -0.2864
    162  CB        21.0380    4.4100    1.9190 C.3    80  MET80       0.0413
    163  CG        20.8700    3.2970    0.8910 C.3    80  MET80       0.0598
    164  SD        21.1770    3.8960   -0.7350 S.3    80  MET80      -0.1393
    165  CE        22.7430    4.7260   -0.6860 C.3    80  MET80       0.0692
    166  N          2.3480  -14.0220   11.2470 N.3   149  GLN149     -0.1245
    167  CA         2.9870  -12.7150   11.0330 C.3   149  GLN149      0.1566
    168  C          1.8580  -11.7030   10.8190 C.2   149  GLN149      0.2260
    169  O          0.7710  -12.0990   10.3410 O.2   149  GLN149     -0.2867
    170  CB         3.9440  -12.7200    9.8570 C.3   149  GLN149      0.0367
    171  CG         4.7610  -13.9880    9.8660 C.3   149  GLN149      0.0905
    172  CD         5.4730  -14.2700    8.5710 C.2   149  GLN149      0.2608
    173  OE1        4.9030  -14.2270    7.4700 O.2   149  GLN149     -0.2717
    174  NE2        6.7410  -14.6680    8.7890 N.am  149  GLN149     -0.0878
@<TRIPOS>BOND
     1   125   123    1
     2   122   123    2
     3   122   121    1
     4   123   124    1
     5   121   120    1
     6   120   119    1
     7   119   116    1
     8   112   110   ar
     9   112   113   ar
    10   110   108   ar
    11    36    35    2
    12   114   113    1
    13   113   111   ar
    14    28    27    1
    15   118   117    2
    16   116   117    1
    17   116   115    1
    18    35    37   am
    19    35    34    1
    20   108   107    1
    21   108   109   ar
    22   107   104    1
    23    34    33    1
    24   111   109   ar
    25    23    22    2
    26    27    26    1
    27   106   105    2
    28   164   165    1
    29   164   163    1
    30   102   100    1
    31   104   105    1
    32   104   103    1
    33    22    21    1
    34    33    30    1
    35    26    25    1
    36    25    24    1
    37   103    94   am
    38    24    21    1
    39   151   149    1
    40    99   100    2
    41    99    98    1
    42    29    30    1
    43    21    20    1
    44    62    60    1
    45   100   101    1
    46   163   162    1
    47   142   143    1
    48   142   141    1
    49    30    31    1
    50    97    98    1
    51    97    96    1
    52    94    93    1
    53    94    95    2
    54   149   148    1
    55    61    60    1
    56    93    96    1
    57    93    92    1
    58   148   150    1
    59   148   145    1
    60   147   146    2
    61    88    87    2
    62    60    59    1
    63   162   159    1
    64    18    19   ar
    65    18    16   ar
    66   129   128    2
    67    32    31    2
    68    72    71    1
    69    73    71    1
    70    31    38   am
    71    19    17   ar
    72   141   140    1
    73    91    89    1
    74    71    70    2
    75    92    87   am
    76   144   145    1
    77   144   137   am
    78    87    86    1
    79   146   145    1
    80   146   152   am
    81   134   132   ar
    82   132   133   ar
    83   132   131    1
    84    16    14   ar
    85   131   130    1
    86   128   135   am
    87   128   127    1
    88   159   158    1
    89   159   160    1
    90    59    56    1
    91   158   154   am
    92   136   137    1
    93   136   135    1
    94   136   139    1
    95    70    69    1
    96   126   127    1
    97    38    39    1
    98   140   139    1
    99   137   138    2
   100    17    15   ar
   101   153   154    1
   102   153   152    1
   103   153   156    1
   104   154   155    2
   105    89    86    1
   106    89    90    1
   107    86    85    1
   108   127   130    1
   109    69    68    1
   110    14    15   ar
   111    14    13    1
   112    56    55    1
   113    56    57    1
   114   160   161    2
   115    68    67    1
   116    39    42    1
   117    39    40    1
   118   156   157    1
   119    43    42    1
   120    43    44    1
   121    12    11    2
   122    85    76   am
   123    13    10    1
   124    44    46   ar
   125    44    45   ar
   126    11    10    1
   127    67    64    1
   128    57    58    2
   129    41    40    2
   130    40    47   am
   131    77    76    2
   132    76    75    1
   133    10     9    1
   134    64    63    1
   135    64    65    1
   136    47    48    1
   137    83    82    1
   138    84    82    1
   139     7     8    1
   140     7     6    1
   141    82    81    2
   142    74    75    1
   143    65    66    2
   144    75    78    1
   145   173   172    2
   146    81    80    1
   147    48    51    1
   148    48    49    1
   149    80    79    1
   150    78    79    1
   151     6     5    1
   152     4     3    2
   153   172   174   am
   154   172   171    1
   155    51    52    1
   156    49    50    2
   157     5     2    1
   158     3     2    1
   159   170   171    1
   160   170   167    1
   161    52    53    1
   162    52    54    1
   163     2     1    1
   164   169   168    2
   165   168   167    1
   166   167   166    1
