@<TRIPOS>MOLECULE
tmp/7nseA01.pdb
 138 134 0 0 0
SMALL
GASTEIGER

@<TRIPOS>ATOM
      1  N          8.7760    5.2970   36.6820 N.3   120  CYS120     -0.1235
      2  CA         7.6970    5.5040   35.7280 C.3   120  CYS120      0.1677
      3  C          6.3970    4.8150   36.1190 C.2   120  CYS120      0.2270
      4  O          6.3280    3.5970   36.2030 O.2   120  CYS120     -0.2867
      5  CB         8.1140    5.0400   34.3180 C.3   120  CYS120      0.0956
      6  SG         6.7840    5.5550   33.1590 S.3   120  CYS120     -0.0801
      7  N         14.8180   18.6100   28.5000 N.3   183  GLN183     -0.1245
      8  CA        13.6710   18.1360   27.7330 C.3   183  GLN183      0.1566
      9  C         13.7020   18.8750   26.3880 C.2   183  GLN183      0.2260
     10  O         14.3440   19.9260   26.2670 O.2   183  GLN183     -0.2867
     11  CB        12.3530   18.4360   28.4400 C.3   183  GLN183      0.0367
     12  CG        12.1270   17.6690   29.7140 C.3   183  GLN183      0.0905
     13  CD        10.7110   17.8300   30.2370 C.2   183  GLN183      0.2608
     14  OE1        9.8000   18.2020   29.5010 O.2   183  GLN183     -0.2717
     15  NE2       10.5220   17.5390   31.5150 N.am  183  GLN183     -0.0878
     16  N         11.0490   23.1170   26.7250 N.3   186  ARG186     -0.1245
     17  CA        11.2660   23.6720   28.0700 C.3   186  ARG186      0.1563
     18  C         11.0530   25.1870   28.0760 C.2   186  ARG186      0.2260
     19  O         11.4290   25.8680   27.1290 O.2   186  ARG186     -0.2867
     20  CB        12.7150   23.4450   28.5120 C.3   186  ARG186      0.0307
     21  CG        13.1430   22.0180   28.7010 C.3   186  ARG186      0.0489
     22  CD        13.0660   21.6150   30.1530 C.3   186  ARG186      0.2205
     23  NE        11.6970   21.5770   30.6510 N.pl3 186  ARG186     -0.0865
     24  CZ        11.3790   21.4190   31.9330 C.cat 186  ARG186      0.5346
     25  NH1       12.3360   21.2830   32.8430 N.pl3 186  ARG186      0.1354
     26  NH2       10.1020   21.3890   32.3010 N.pl3 186  ARG186      0.1354
     27  N          3.1090   23.0920   27.7230 N.3   267  TYR267     -0.1241
     28  CA         3.2830   22.3880   26.4680 C.3   267  TYR267      0.1605
     29  C          2.7200   20.9810   26.5760 C.2   267  TYR267      0.2264
     30  O          2.7510   20.3760   27.6400 O.2   267  TYR267     -0.2867
     31  CB         4.7500   22.3640   26.0590 C.3   267  TYR267      0.0534
     32  CG         5.7110   21.8740   27.1170 C.ar  267  TYR267     -0.0201
     33  CD1        6.0640   20.5260   27.2040 C.ar  267  TYR267     -0.0009
     34  CD2        6.3230   22.7710   27.9890 C.ar  267  TYR267     -0.0009
     35  CE1        7.0090   20.0900   28.1310 C.ar  267  TYR267      0.0417
     36  CE2        7.2670   22.3450   28.9250 C.ar  267  TYR267      0.0417
     37  CZ         7.6050   21.0090   28.9890 C.ar  267  TYR267      0.1957
     38  OH         8.5340   20.5970   29.9160 O.3   267  TYR267     -0.2866
     39  N          5.8700   15.8700   26.7250 N.3   270  PRO270     -0.2116
     40  CA         6.9360   15.6650   27.7050 C.3   270  PRO270      0.1372
     41  C          7.9920   14.7440   27.1050 C.2   270  PRO270      0.2244
     42  O          7.7490   13.5510   26.9210 O.2   270  PRO270     -0.2868
     43  CB         6.1930   15.0040   28.8650 C.3   270  PRO270      0.0268
     44  CG         5.1460   14.1980   28.1610 C.3   270  PRO270      0.0207
     45  CD         4.6490   15.1350   27.1130 C.3   270  PRO270      0.0892
     46  N         11.9010   13.6530   27.7660 N.3   272  VAL272     -0.1245
     47  CA        13.1820   13.6950   28.4450 C.3   272  VAL272      0.1561
     48  C         14.3000   13.4710   27.4260 C.2   272  VAL272      0.2260
     49  O         14.2620   12.5220   26.6400 O.2   272  VAL272     -0.2867
     50  CB        13.2370   12.6680   29.5810 C.3   272  VAL272      0.0252
     51  CG1       14.5600   12.7570   30.3060 C.3   272  VAL272      0.0019
     52  CG2       12.0830   12.9080   30.5260 C.3   272  VAL272      0.0019
     53  N         13.1400   10.5190   24.6380 N.3   289  PHE289     -0.1227
     54  CA        11.9310    9.7040   24.6080 C.3   289  PHE289      0.1736
     55  C         10.7850   10.5670   25.1080 C.2   289  PHE289      0.2596
     56  O         10.9990   11.5220   25.8460 O.2   289  PHE289     -0.2718
     57  CB        12.0790    8.4600   25.4970 C.3   289  PHE289      0.0547
     58  CG        12.3860    8.7680   26.9480 C.ar  289  PHE289     -0.0202
     59  CD1       11.3590    9.0060   27.8600 C.ar  289  PHE289     -0.0042
     60  CD2       13.6980    8.8010   27.4010 C.ar  289  PHE289     -0.0042
     61  CE1       11.6390    9.2710   29.2000 C.ar  289  PHE289     -0.0003
     62  CE2       13.9860    9.0660   28.7420 C.ar  289  PHE289     -0.0003
     63  CZ        12.9540    9.3000   29.6390 C.ar  289  PHE289     -0.0000
     64  N          9.5650   10.2100   24.7410 N.am  290  SER290     -0.1938
     65  CA         8.4200   10.9910   25.1590 C.3   290  SER290      0.2055
     66  C          7.1830   10.1450   25.1690 C.2   290  SER290      0.2644
     67  O          7.1350    9.0920   24.5380 O.2   290  SER290     -0.2714
     68  CB         8.2100   12.1570   24.1960 C.3   290  SER290      0.2130
     69  OG         7.9370   11.7040   22.8780 O.3   290  SER290     -0.2179
     70  N          6.1760   10.6210   25.8820 N.am  291  GLY291     -0.1939
     71  CA         4.9110    9.9240   25.9540 C.3   291  GLY291      0.2014
     72  C          3.9390   11.0420   26.1970 C.2   291  GLY291      0.2639
     73  O          3.9050   11.9890   25.4200 O.2   291  GLY291     -0.2714
     74  N          3.1150   10.9150   27.2260 N.am  292  TRP292     -0.1959
     75  CA         2.2080   11.9890   27.5880 C.3   292  TRP292      0.1771
     76  C          2.3130   12.2910   29.0870 C.2   292  TRP292      0.2619
     77  O          3.0450   11.6210   29.8260 O.2   292  TRP292     -0.2715
     78  CB         0.7630   11.7530   27.1110 C.3   292  TRP292      0.0590
     79  CG         0.1280   10.4680   27.5070 C.ar  292  TRP292      0.0006
     80  CD1       -0.5890   10.2200   28.6430 C.ar  292  TRP292      0.0946
     81  CD2        0.1160    9.2510   26.7480 C.ar  292  TRP292      0.0152
     82  NE1       -1.0470    8.9250   28.6400 N.ar  292  TRP292     -0.2442
     83  CE2       -0.6280    8.3040   27.4910 C.ar  292  TRP292      0.0810
     84  CE3        0.6590    8.8680   25.5110 C.ar  292  TRP292      0.0012
     85  CZ2       -0.8400    6.9860   27.0350 C.ar  292  TRP292      0.0191
     86  CZ3        0.4470    7.5600   25.0570 C.ar  292  TRP292      0.0001
     87  CH2       -0.2960    6.6380   25.8200 C.ar  292  TRP292      0.0015
     88  N          1.6690   13.3730   29.4970 N.am  293  TYR293     -0.1974
     89  CA         1.6900   13.8250   30.8790 C.3   293  TYR293      0.1639
     90  C          0.6350   13.2100   31.7610 C.2   293  TYR293      0.2290
     91  O         -0.4240   12.7780   31.2900 O.2   293  TYR293     -0.2864
     92  CB         1.4280   15.3420   30.9420 C.3   293  TYR293      0.0560
     93  CG         2.6430   16.2200   30.9040 C.ar  293  TYR293     -0.0198
     94  CD1        3.6480   16.0860   31.8540 C.ar  293  TYR293     -0.0009
     95  CD2        2.7920   17.1980   29.9150 C.ar  293  TYR293     -0.0009
     96  CE1        4.7730   16.8960   31.8220 C.ar  293  TYR293      0.0417
     97  CE2        3.9180   18.0170   29.8730 C.ar  293  TYR293      0.0417
     98  CZ         4.9050   17.8600   30.8300 C.ar  293  TYR293      0.1957
     99  OH         6.0330   18.6500   30.8000 O.3   293  TYR293     -0.2866
    100  N          1.9680   16.2990   37.2500 N.3   297  GLU297     -0.1245
    101  CA         3.3090   16.7850   36.9080 C.3   297  GLU297      0.1567
    102  C          3.2690   18.2760   36.5590 C.2   297  GLU297      0.2260
    103  O          4.2310   18.9950   36.7860 O.2   297  GLU297     -0.2867
    104  CB         3.8730   16.0430   35.6970 C.3   297  GLU297      0.0388
    105  CG         4.0000   14.5500   35.8310 C.3   297  GLU297      0.1160
    106  CD         4.6370   13.9310   34.5980 C.2   297  GLU297      0.3649
    107  OE1        5.8790   13.9370   34.5070 O.co2 297  GLU297     -0.2457
    108  OE2        3.8940   13.4620   33.7120 O.co2 297  GLU297     -0.2457
    109  N          3.4170   19.7660   40.6040 N.3   301  ARG301     -0.1231
    110  CA         4.8450   20.0050   40.6550 C.3   301  ARG301      0.1694
    111  C          5.3450   21.2370   39.8930 C.2   301  ARG301      0.2592
    112  O          5.9460   22.1280   40.4840 O.2   301  ARG301     -0.2718
    113  CB         5.6060   18.7390   40.2380 C.3   301  ARG301      0.0321
    114  CG         5.2480   17.4860   41.0540 C.3   301  ARG301      0.0489
    115  CD         5.5840   17.6270   42.5290 C.3   301  ARG301      0.2205
    116  NE         6.9500   18.1130   42.7600 N.pl3 301  ARG301     -0.0865
    117  CZ         8.0550   17.3900   42.5910 C.cat 301  ARG301      0.5346
    118  NH1        7.9610   16.1360   42.1800 N.pl3 301  ARG301      0.1354
    119  NH2        9.2580   17.9140   42.8280 N.pl3 301  ARG301      0.1354
    120  N          5.0770   21.2940   38.5900 N.am  302  ASN302     -0.1974
    121  CA         5.5280   22.4010   37.7430 C.3   302  ASN302      0.1688
    122  C          4.9620   23.7510   38.1500 C.2   302  ASN302      0.2292
    123  O          5.7010   24.7320   38.2790 O.2   302  ASN302     -0.2864
    124  CB         5.1820   22.1260   36.2740 C.3   302  ASN302      0.1181
    125  CG         5.9070   20.9060   35.7140 C.2   302  ASN302      0.2629
    126  OD1        6.9590   20.4950   36.2090 O.2   302  ASN302     -0.2716
    127  ND2        5.3370   20.3230   34.6780 N.am  302  ASN302     -0.0877
    128  N          9.5900   26.3250   41.6290 N.3   308  ARG308     -0.1245
    129  CA         9.1660   26.3440   40.2230 C.3   308  ARG308      0.1563
    130  C          8.2530   27.5630   40.0340 C.2   308  ARG308      0.2260
    131  O          8.5720   28.6480   40.5160 O.2   308  ARG308     -0.2867
    132  CB         8.4330   25.0420   39.8330 C.3   308  ARG308      0.0307
    133  CG         9.2830   23.7700   39.9150 C.3   308  ARG308      0.0489
    134  CD        10.4470   23.7520   38.9140 C.3   308  ARG308      0.2205
    135  NE         9.9820   23.7010   37.5250 N.pl3 308  ARG308     -0.0865
    136  CZ         9.6200   22.5900   36.8830 C.cat 308  ARG308      0.5346
    137  NH1        9.6690   21.4090   37.4820 N.pl3 308  ARG308      0.1354
    138  NH2        9.1520   22.6620   35.6470 N.pl3 308  ARG308      0.1354
@<TRIPOS>BOND
     1    69    68    1
     2    68    65    1
     3    67    66    2
     4    54    53    1
     5    54    55    1
     6    54    57    1
     7    64    55   am
     8    64    65    1
     9    86    84   ar
    10    86    87   ar
    11    55    56    2
    12    65    66    1
    13    66    70   am
    14    73    72    2
    15    57    58    1
    16    84    81   ar
    17    87    85   ar
    18    70    71    1
    19    71    72    1
    20    31    28    1
    21    31    32    1
    22    72    74   am
    23    10     9    2
    24     9     8    1
    25    28    29    1
    26    28    27    1
    27    29    30    2
    28    49    48    2
    29    16    17    1
    30    39    45    1
    31    39    40    1
    32    81    83   ar
    33    81    79   ar
    34    42    41    2
    35    58    60   ar
    36    58    59   ar
    37    85    83   ar
    38    41    40    1
    39    78    79    1
    40    78    75    1
    41    45    44    1
    42    32    33   ar
    43    32    34   ar
    44    19    18    2
    45    33    35   ar
    46    74    75    1
    47    60    62   ar
    48    48    47    1
    49    83    82   ar
    50    79    80   ar
    51    75    76    1
    52    40    43    1
    53     8    11    1
    54     8     7    1
    55    46    47    1
    56    59    61   ar
    57    34    36   ar
    58    17    18    1
    59    17    20    1
    60    35    37   ar
    61    44    43    1
    62    11    12    1
    63    47    50    1
    64    20    21    1
    65    82    80   ar
    66    21    22    1
    67    62    63   ar
    68    36    37   ar
    69    37    38    1
    70    76    88   am
    71    76    77    2
    72    61    63   ar
    73    88    89    1
    74    14    13    2
    75    50    51    1
    76    50    52    1
    77    12    13    1
    78    97    95   ar
    79    97    98   ar
    80    95    93   ar
    81    22    23    1
    82    13    15   am
    83    23    24    2
    84    99    98    1
    85    98    96   ar
    86    89    92    1
    87    89    90    1
    88    93    92    1
    89    93    94   ar
    90    91    90    2
    91    96    94   ar
    92    24    26    1
    93    24    25    1
    94     6     5    1
    95   108   106   ar
    96     5     2    1
    97   107   106   ar
    98   106   105    1
    99   127   125   am
   100   138   136    1
   101   104   105    1
   102   104   101    1
   103   125   126    2
   104   125   124    1
   105     2     3    1
   106     2     1    1
   107     3     4    2
   108   124   121    1
   109   102   103    2
   110   102   101    1
   111   136   137    1
   112   136   135    2
   113   101   100    1
   114   135   134    1
   115   121   122    1
   116   121   120    1
   117   122   123    2
   118   120   111   am
   119   134   133    1
   120   132   133    1
   121   132   129    1
   122   111   112    2
   123   111   110    1
   124   130   129    1
   125   130   131    2
   126   129   128    1
   127   113   110    1
   128   113   114    1
   129   109   110    1
   130   114   115    1
   131   118   117    1
   132   115   116    1
   133   117   116    2
   134   117   119    1
