@<TRIPOS>MOLECULE
tmp/7prcC11.pdb
 224 219 0 0 0
SMALL
GASTEIGER

@<TRIPOS>ATOM
      1  N        132.0060   43.4860   -0.8850 N.3    66  ILE66      -0.1245
      2  CA       130.7420   43.4030   -1.5840 C.3    66  ILE66       0.1561
      3  C        130.4760   41.9900   -2.1340 C.2    66  ILE66       0.2260
      4  O        129.4030   41.4450   -1.8850 O.2    66  ILE66      -0.2867
      5  CB       130.6320   44.5010   -2.6440 C.3    66  ILE66       0.0252
      6  CG1      130.4780   45.8350   -1.9210 C.3    66  ILE66       0.0019
      7  CG2      129.4000   44.2980   -3.5340 C.3    66  ILE66       0.0019
      8  CD1      130.8460   47.0350   -2.7630 C.3    66  ILE66       0.0001
      9  N        129.2880   39.6340    0.7400 N.3    69  ILE69      -0.1231
     10  CA       127.8960   39.8900    1.0770 C.3    69  ILE69       0.1692
     11  C        127.0080   39.3150   -0.0320 C.2    69  ILE69       0.2591
     12  O        126.2000   38.4200    0.2440 O.2    69  ILE69      -0.2718
     13  CB       127.6170   41.4010    1.2990 C.3    69  ILE69       0.0266
     14  CG1      128.3490   41.8750    2.5570 C.3    69  ILE69       0.0019
     15  CG2      126.1360   41.6480    1.4810 C.3    69  ILE69       0.0020
     16  CD1      128.6470   43.3390    2.5420 C.3    69  ILE69       0.0001
     17  N        127.2950   39.6730   -1.2850 N.am   70  LEU70      -0.1980
     18  CA       126.3970   39.3430   -2.3920 C.3    70  LEU70       0.1596
     19  C        126.3140   37.8350   -2.6230 C.2    70  LEU70       0.2287
     20  O        125.2260   37.2990   -2.7850 O.2    70  LEU70      -0.2864
     21  CB       126.8310   40.0450   -3.6730 C.3    70  LEU70       0.0297
     22  CG       126.4090   41.5050   -3.8160 C.3    70  LEU70       0.0022
     23  CD1      127.0260   42.0620   -5.0750 C.3    70  LEU70       0.0001
     24  CD2      124.8900   41.6310   -3.8680 C.3    70  LEU70       0.0001
     25  N        124.1810   36.5220    0.1190 N.3    73  MET73      -0.1245
     26  CA       122.8390   36.9100   -0.2420 C.3    73  MET73       0.1570
     27  C        122.2790   36.0060   -1.3250 C.2    73  MET73       0.2261
     28  O        121.1980   35.4750   -1.1580 O.2    73  MET73      -0.2867
     29  CB       122.8110   38.3710   -0.6750 C.3    73  MET73       0.0387
     30  CG       122.7940   39.3350    0.4900 C.3    73  MET73       0.0595
     31  SD       123.0420   41.0110   -0.0690 S.3    73  MET73      -0.1393
     32  CE       121.6050   41.2290   -1.0950 C.3    73  MET73       0.0692
     33  N        116.4320   36.3200   -6.4400 N.3    84  PHE84      -0.1227
     34  CA       117.4550   37.2340   -5.9650 C.3    84  PHE84       0.1736
     35  C        117.0060   38.6650   -6.2000 C.2    84  PHE84       0.2595
     36  O        116.7950   39.4080   -5.2480 O.2    84  PHE84      -0.2718
     37  CB       118.7830   36.9930   -6.6820 C.3    84  PHE84       0.0547
     38  CG       119.9250   37.7680   -6.1020 C.ar   84  PHE84      -0.0202
     39  CD1      120.5710   37.3180   -4.9610 C.ar   84  PHE84      -0.0042
     40  CD2      120.3210   38.9680   -6.6670 C.ar   84  PHE84      -0.0042
     41  CE1      121.5920   38.0500   -4.3920 C.ar   84  PHE84      -0.0003
     42  CE2      121.3350   39.7090   -6.1050 C.ar   84  PHE84      -0.0003
     43  CZ       121.9760   39.2530   -4.9630 C.ar   84  PHE84      -0.0000
     44  N        116.8100   39.0330   -7.4650 N.am   85  PHE85      -0.1976
     45  CA       116.4010   40.3900   -7.8180 C.3    85  PHE85       0.1639
     46  C        115.1280   40.7750   -7.0670 C.2    85  PHE85       0.2290
     47  O        115.0410   41.8690   -6.5150 O.2    85  PHE85      -0.2864
     48  CB       116.1870   40.5010   -9.3300 C.3    85  PHE85       0.0560
     49  CG       115.7680   41.8750   -9.7980 C.ar   85  PHE85      -0.0200
     50  CD1      116.5030   43.0040   -9.4500 C.ar   85  PHE85      -0.0042
     51  CD2      114.6440   42.0350  -10.6110 C.ar   85  PHE85      -0.0042
     52  CE1      116.1220   44.2780   -9.9080 C.ar   85  PHE85      -0.0003
     53  CE2      114.2580   43.3010  -11.0720 C.ar   85  PHE85      -0.0003
     54  CZ       114.9990   44.4230  -10.7210 C.ar   85  PHE85      -0.0000
     55  N        115.7780   41.1260   -2.9190 N.3    88  PHE88      -0.1241
     56  CA       117.1030   41.6530   -2.6020 C.3    88  PHE88       0.1605
     57  C        117.1230   42.3990   -1.2760 C.2    88  PHE88       0.2264
     58  O        117.8900   42.0530   -0.3850 O.2    88  PHE88      -0.2867
     59  CB       117.6150   42.5710   -3.7220 C.3    88  PHE88       0.0534
     60  CG       119.0090   43.0870   -3.4900 C.ar   88  PHE88      -0.0203
     61  CD1      120.1090   42.3320   -3.8490 C.ar   88  PHE88      -0.0042
     62  CD2      119.2170   44.3570   -2.9820 C.ar   88  PHE88      -0.0042
     63  CE1      121.4010   42.8490   -3.7260 C.ar   88  PHE88      -0.0003
     64  CE2      120.4990   44.8770   -2.8520 C.ar   88  PHE88      -0.0003
     65  CZ       121.5900   44.1220   -3.2320 C.ar   88  PHE88      -0.0000
     66  N        133.1610   35.8780   22.4760 N.3   102  MET102     -0.1245
     67  CA       134.0560   36.5540   21.5430 C.3   102  MET102      0.1570
     68  C        134.7440   35.5950   20.5690 C.2   102  MET102      0.2261
     69  O        135.6950   35.9650   19.8750 O.2   102  MET102     -0.2867
     70  CB       135.1090   37.3480   22.3130 C.3   102  MET102      0.0387
     71  CG       134.6800   38.7420   22.7070 C.3   102  MET102      0.0595
     72  SD       134.0040   39.6540   21.3160 S.3   102  MET102     -0.1393
     73  CE       135.4840   40.2220   20.4900 C.3   102  MET102      0.0692
     74  N        135.6060   33.2940   17.4100 N.3   104  ILE104     -0.1245
     75  CA       135.4380   33.4600   15.9650 C.3   104  ILE104      0.1561
     76  C        134.3140   32.5390   15.4760 C.2   104  ILE104      0.2260
     77  O        134.3320   31.3370   15.7590 O.2   104  ILE104     -0.2867
     78  CB       136.7690   33.1750   15.2230 C.3   104  ILE104      0.0252
     79  CG1      137.6920   34.3810   15.3650 C.3   104  ILE104      0.0019
     80  CG2      136.5260   32.9010   13.7430 C.3   104  ILE104      0.0019
     81  CD1      139.0760   34.1750   14.7860 C.3   104  ILE104      0.0001
     82  N        130.3390   37.1060    7.9600 N.3   113  TRP113     -0.1227
     83  CA       129.9680   38.4710    8.2960 C.3   113  TRP113      0.1737
     84  C        131.2020   39.2020    8.8190 C.2   113  TRP113      0.2595
     85  O        131.5000   40.3190    8.4000 O.2   113  TRP113     -0.2718
     86  CB       128.8400   38.4420    9.3460 C.3   113  TRP113      0.0564
     87  CG       128.4550   39.7840    9.9130 C.ar  113  TRP113      0.0003
     88  CD1      127.6530   40.7420    9.3250 C.ar  113  TRP113      0.0946
     89  CD2      128.9830   40.3810   11.0950 C.ar  113  TRP113      0.0152
     90  NE1      127.6950   41.9070   10.0530 N.ar  113  TRP113     -0.2442
     91  CE2      128.5110   41.7150   11.1400 C.ar  113  TRP113      0.0810
     92  CE3      129.8350   39.9280   12.1110 C.ar  113  TRP113      0.0012
     93  CZ2      128.8780   42.6040   12.1570 C.ar  113  TRP113      0.0191
     94  CZ3      130.1990   40.8140   13.1280 C.ar  113  TRP113      0.0001
     95  CH2      129.7230   42.1370   13.1380 C.ar  113  TRP113      0.0015
     96  N        131.9420   38.5430    9.7010 N.am  114  LEU114     -0.1980
     97  CA       133.1690   39.1030   10.2550 C.3   114  LEU114      0.1596
     98  C        134.1780   39.3680    9.1340 C.2   114  LEU114      0.2287
     99  O        134.8930   40.3650    9.1560 O.2   114  LEU114     -0.2864
    100  CB       133.7490   38.1230   11.2830 C.3   114  LEU114      0.0297
    101  CG       134.5680   38.5760   12.4970 C.3   114  LEU114      0.0022
    102  CD1      134.2550   39.9920   12.9190 C.3   114  LEU114      0.0001
    103  CD2      134.2500   37.6330   13.6380 C.3   114  LEU114      0.0001
    104  N        133.0950   42.3060    7.4000 N.3   117  GLY117     -0.1210
    105  CA       133.3310   43.3730    8.3530 C.3   117  GLY117      0.1956
    106  C        134.7520   43.8840    8.2470 C.2   117  GLY117      0.2611
    107  O        134.9880   45.0470    7.9350 O.2   117  GLY117     -0.2717
    108  N        135.7020   42.9730    8.3940 N.am  118  LEU118     -0.1979
    109  CA       137.1160   43.2820    8.2370 C.3   118  LEU118      0.1596
    110  C        137.4760   43.9750    6.9220 C.2   118  LEU118      0.2287
    111  O        138.2030   44.9700    6.9140 O.2   118  LEU118     -0.2864
    112  CB       137.9250   42.0100    8.3610 C.3   118  LEU118      0.0297
    113  CG       139.4070   42.1870    8.0800 C.3   118  LEU118      0.0022
    114  CD1      139.9920   43.3460    8.8820 C.3   118  LEU118      0.0001
    115  CD2      140.0950   40.8780    8.4510 C.3   118  LEU118      0.0001
    116  N        135.5050   45.6650    4.7390 N.3   120  MET120     -0.1230
    117  CA       134.8910   46.9890    4.6700 C.3   120  MET120      0.1702
    118  C        135.6720   47.9970    5.5080 C.2   120  MET120      0.2593
    119  O        135.8950   49.1260    5.0630 O.2   120  MET120     -0.2718
    120  CB       133.4420   46.9320    5.1390 C.3   120  MET120      0.0401
    121  CG       132.8200   48.2810    5.4650 C.3   120  MET120      0.0596
    122  SD       131.3430   48.0550    6.4360 S.3   120  MET120     -0.1393
    123  CE       131.6190   49.1760    7.7980 C.3   120  MET120      0.0692
    124  N        136.1540   47.5490    6.6700 N.am  121  THR121     -0.1953
    125  CA       137.0370   48.3250    7.5440 C.3   121  THR121      0.1897
    126  C        138.3140   48.7970    6.8570 C.2   121  THR121      0.2313
    127  O        138.7710   49.9270    7.0740 O.2   121  THR121     -0.2863
    128  CB       137.4400   47.4900    8.7530 C.3   121  THR121      0.1794
    129  OG1      136.2650   47.1520    9.4820 O.3   121  THR121     -0.2208
    130  CG2      138.4000   48.2450    9.6590 C.3   121  THR121      0.0378
    131  N        131.0060   53.8330   13.0980 N.3   155  VAL155     -0.1231
    132  CA       130.8230   52.5100   12.5210 C.3   155  VAL155      0.1692
    133  C        131.6610   51.4650   13.2790 C.2   155  VAL155      0.2591
    134  O        131.2050   50.3510   13.5230 O.2   155  VAL155     -0.2718
    135  CB       131.2670   52.4600   11.0360 C.3   155  VAL155      0.0266
    136  CG1      131.0150   51.0820   10.4930 C.3   155  VAL155      0.0020
    137  CG2      130.5230   53.4820   10.1870 C.3   155  VAL155      0.0020
    138  N        132.9330   51.7490   13.5050 N.am  156  LEU156     -0.1980
    139  CA       133.7280   50.8290   14.2710 C.3   156  LEU156      0.1596
    140  C        133.0500   50.5790   15.6030 C.2   156  LEU156      0.2287
    141  O        133.0150   49.4420   16.0600 O.2   156  LEU156     -0.2864
    142  CB       135.1350   51.3600   14.4860 C.3   156  LEU156      0.0297
    143  CG       135.9520   51.5510   13.2030 C.3   156  LEU156      0.0022
    144  CD1      137.3850   51.8710   13.5700 C.3   156  LEU156      0.0001
    145  CD2      135.9230   50.3240   12.3830 C.3   156  LEU156      0.0001
    146  N        129.6370   50.6360   16.3390 N.3   158  ILE158     -0.1231
    147  CA       128.4860   49.7390   16.1990 C.3   158  ILE158      0.1692
    148  C        128.7940   48.3840   15.5700 C.2   158  ILE158      0.2593
    149  O        128.1420   47.3980   15.9040 O.2   158  ILE158     -0.2718
    150  CB       127.2970   50.3880   15.4440 C.3   158  ILE158      0.0266
    151  CG1      127.7370   50.9000   14.0780 C.3   158  ILE158      0.0019
    152  CG2      126.6750   51.4900   16.2990 C.3   158  ILE158      0.0020
    153  CD1      126.5720   51.2740   13.1880 C.3   158  ILE158      0.0001
    154  N        129.7990   48.3270   14.7000 N.am  159  GLY159     -0.1942
    155  CA       130.2180   47.0640   14.1200 C.3   159  GLY159      0.2014
    156  C        131.1960   46.2240   14.9320 C.2   159  GLY159      0.2639
    157  O        131.1960   45.0050   14.8060 O.2   159  GLY159     -0.2714
    158  N        132.0640   46.8470   15.7200 N.am  160  CYS160     -0.1967
    159  CA       133.1300   46.1060   16.3930 C.3   160  CYS160      0.1712
    160  C        133.1650   46.3400   17.8710 C.2   160  CYS160      0.2296
    161  O        133.1500   45.4030   18.6620 O.2   160  CYS160     -0.2864
    162  CB       134.5000   46.5020   15.8560 C.3   160  CYS160      0.0983
    163  SG       135.0640   45.5940   14.4010 S.3   160  CYS160     -0.0798
    164  N        129.6330   38.8570   19.4720 N.3   169  TRP169     -0.1241
    165  CA       129.5880   39.2760   18.0640 C.3   169  TRP169      0.1605
    166  C        128.1680   39.2900   17.5660 C.2   169  TRP169      0.2264
    167  O        127.8900   39.7970   16.4810 O.2   169  TRP169     -0.2867
    168  CB       130.3840   38.3240   17.1890 C.3   169  TRP169      0.0550
    169  CG       131.8250   38.4750   17.3590 C.ar  169  TRP169      0.0003
    170  CD1      132.6970   37.5160   17.7480 C.ar  169  TRP169      0.0946
    171  CD2      132.6100   39.6210   16.9990 C.ar  169  TRP169      0.0152
    172  NE1      133.9870   37.9740   17.6160 N.ar  169  TRP169     -0.2442
    173  CE2      133.9610   39.2680   17.1700 C.ar  169  TRP169      0.0810
    174  CE3      132.2980   40.9020   16.5150 C.ar  169  TRP169      0.0012
    175  CZ2      135.0030   40.1440   16.8910 C.ar  169  TRP169      0.0191
    176  CZ3      133.3400   41.7720   16.2220 C.ar  169  TRP169      0.0001
    177  CH2      134.6760   41.3870   16.4150 C.ar  169  TRP169      0.0015
    178  N        126.0550   44.7300   13.2920 N.3   173  VAL173     -0.1231
    179  CA       125.1110   45.1810   12.2760 C.3   173  VAL173      0.1678
    180  C        125.1680   44.2810   11.0220 C.2   173  VAL173      0.2434
    181  O        126.2000   44.2160   10.3450 O.2   173  VAL173     -0.2733
    182  CB       125.4140   46.6460   11.8510 C.3   173  VAL173      0.0265
    183  CG1      124.2790   47.1720   11.0440 C.3   173  VAL173      0.0020
    184  CG2      125.6220   47.5450   13.0640 C.3   173  VAL173      0.0020
    185  N        124.0570   43.5940   10.6940 N.am  174  PRO174     -0.2718
    186  CA       124.0240   42.7020    9.5260 C.3   174  PRO174      0.1535
    187  C        124.1240   43.5400    8.2710 C.2   174  PRO174      0.2599
    188  O        123.8450   44.7380    8.3390 O.2   174  PRO174     -0.2715
    189  CB       122.6610   42.0070    9.6330 C.3   174  PRO174      0.0310
    190  CG       121.8330   42.8930   10.4600 C.3   174  PRO174      0.0237
    191  CD       122.7620   43.6200   11.4000 C.3   174  PRO174      0.0939
    192  N        124.6520   42.9780    7.1790 N.am  175  PHE175     -0.1960
    193  CA       124.6710   43.7150    5.9020 C.3   175  PHE175      0.1771
    194  C        123.4530   43.3090    5.0860 C.2   175  PHE175      0.2620
    195  O        123.1500   42.1190    4.9460 O.2   175  PHE175     -0.2715
    196  CB       125.9210   43.4130    5.0640 C.3   175  PHE175      0.0574
    197  CG       127.2210   43.8040    5.7160 C.ar  175  PHE175     -0.0200
    198  CD1      127.8740   42.9270    6.5760 C.ar  175  PHE175     -0.0042
    199  CD2      127.8730   44.9740    5.3440 C.ar  175  PHE175     -0.0042
    200  CE1      129.1590   43.1990    7.0470 C.ar  175  PHE175     -0.0003
    201  CE2      129.1620   45.2510    5.8140 C.ar  175  PHE175     -0.0003
    202  CZ       129.7990   44.3570    6.6640 C.ar  175  PHE175     -0.0000
    203  N        122.7460   44.3020    4.5700 N.am  176  GLY176     -0.1940
    204  CA       121.5520   44.0470    3.7900 C.3   176  GLY176      0.2014
    205  C        120.6760   45.2560    3.9800 C.2   176  GLY176      0.2638
    206  O        120.8720   46.0170    4.9280 O.2   176  GLY176     -0.2714
    207  N        119.7000   45.4510    3.1060 N.am  177  ILE177     -0.1977
    208  CA       118.9130   46.6690    3.1770 C.3   177  ILE177      0.1596
    209  C        117.9330   46.6520    4.3340 C.2   177  ILE177      0.2287
    210  O        118.1440   47.3450    5.3230 O.2   177  ILE177     -0.2864
    211  CB       118.1820   46.9270    1.8860 C.3   177  ILE177      0.0276
    212  CG1      119.1620   46.8080    0.7100 C.3   177  ILE177      0.0022
    213  CG2      117.5100   48.2900    1.9620 C.3   177  ILE177      0.0022
    214  CD1      119.8840   48.0650    0.3640 C.3   177  ILE177      0.0001
    215  N        119.8090   45.6800    7.9610 N.3   180  HIS180     -0.1241
    216  CA       120.5070   46.6500    8.8060 C.3   180  HIS180      0.1621
    217  C        119.5490   47.5880    9.5300 C.2   180  HIS180      0.2264
    218  O        119.7450   47.8770   10.7090 O.2   180  HIS180     -0.2867
    219  CB       121.5940   47.3970    8.0080 C.3   180  HIS180      0.0745
    220  CG       121.1960   48.7360    7.4720 C.ar  180  HIS180      0.0817
    221  ND1      120.3520   48.9130    6.4000 N.ar  180  HIS180     -0.2268
    222  CD2      121.7660   49.9510    7.6800 C.ar  180  HIS180      0.1154
    223  CE1      120.4460   50.1960    6.0090 C.ar  180  HIS180      0.1986
    224  NE2      121.3010   50.8650    6.7610 N.ar  180  HIS180     -0.2212
@<TRIPOS>BOND
     1    53    54   ar
     2    53    51   ar
     3    54    52   ar
     4    51    49   ar
     5    52    50   ar
     6    49    50   ar
     7    49    48    1
     8    48    45    1
     9    45    44    1
    10    45    46    1
    11    44    35   am
    12    46    47    2
    13    37    38    1
    14    37    34    1
    15    40    42   ar
    16    40    38   ar
    17    33    34    1
    18    35    34    1
    19    35    36    2
    20    42    43   ar
    21    38    39   ar
    22    23    22    1
    23    43    41   ar
    24    39    41   ar
    25    24    22    1
    26    61    63   ar
    27    61    60   ar
    28    22    21    1
    29    63    65   ar
    30    59    60    1
    31    59    56    1
    32    21    18    1
    33     7     5    1
    34    60    62   ar
    35    65    64   ar
    36    62    64   ar
    37    55    56    1
    38    20    19    2
    39     8     6    1
    40     5     6    1
    41     5     2    1
    42    19    18    1
    43    56    57    1
    44    18    17    1
    45     3     4    2
    46     3     2    1
    47     2     1    1
    48    27    28    2
    49    27    26    1
    50    17    11   am
    51    57    58    2
    52    32    31    1
    53    29    26    1
    54    29    30    1
    55    26    25    1
    56    31    30    1
    57    11    12    2
    58    11    10    1
    59   214   212    1
    60   212   211    1
    61     9    10    1
    62    10    13    1
    63    13    15    1
    64    13    14    1
    65   211   213    1
    66   211   208    1
    67    16    14    1
    68   207   208    1
    69   207   205   am
    70   208   209    1
    71   204   205    1
    72   204   203    1
    73   205   206    2
    74   209   210    2
    75   203   194   am
    76   117   116    1
    77   117   120    1
    78   117   118    1
    79   195   194    2
    80   119   118    2
    81   196   197    1
    82   196   193    1
    83   194   193    1
    84   120   121    1
    85   199   197   ar
    86   199   201   ar
    87   121   122    1
    88   118   124   am
    89   197   198   ar
    90   201   202   ar
    91   193   192    1
    92   223   221   ar
    93   223   224   ar
    94   221   220   ar
    95   122   123    1
    96   198   200   ar
    97   202   200   ar
    98   124   125    1
    99   224   222   ar
   100   126   127    2
   101   126   125    1
   102   111   110    2
   103   110   109    1
   104   192   187   am
   105   104   105    1
   106   220   222   ar
   107   220   219    1
   108   125   128    1
   109   107   106    2
   110    82    83    1
   111   215   216    1
   112   219   216    1
   113   113   112    1
   114   113   115    1
   115   113   114    1
   116   109   112    1
   117   109   108    1
   118   106   105    1
   119   106   108   am
   120   187   188    2
   121   187   186    1
   122    83    84    1
   123    83    86    1
   124    85    84    2
   125   128   129    1
   126   128   130    1
   127   216   217    1
   128    84    96   am
   129    98    99    2
   130    98    97    1
   131    88    87   ar
   132    88    90   ar
   133    86    87    1
   134   186   189    1
   135   186   185    1
   136   217   218    2
   137   189   190    1
   138    96    97    1
   139    87    89   ar
   140    90    91   ar
   141   137   135    1
   142    97   100    1
   143   181   180    2
   144   190   191    1
   145   136   135    1
   146   185   180   am
   147   185   191    1
   148   180   179    1
   149   135   132    1
   150   183   182    1
   151    89    91   ar
   152    89    92   ar
   153    91    93   ar
   154   100   101    1
   155   182   179    1
   156   182   184    1
   157    92    94   ar
   158    93    95   ar
   159   179   178    1
   160   145   143    1
   161   101   102    1
   162   101   103    1
   163   132   131    1
   164   132   133    1
   165    94    95   ar
   166   153   151    1
   167   143   144    1
   168   143   142    1
   169   133   138   am
   170   133   134    2
   171   138   139    1
   172    80    78    1
   173   151   150    1
   174   155   154    1
   175   155   156    1
   176   139   142    1
   177   139   140    1
   178   163   162    1
   179   154   148   am
   180    81    79    1
   181   157   156    2
   182   156   158   am
   183    78    79    1
   184    78    75    1
   185   150   147    1
   186   150   152    1
   187    76    77    2
   188    76    75    1
   189   148   149    2
   190   148   147    1
   191   140   141    2
   192   158   159    1
   193   162   159    1
   194    75    74    1
   195   147   146    1
   196   176   177   ar
   197   176   174   ar
   198   159   160    1
   199   177   175   ar
   200   167   166    2
   201   174   171   ar
   202   175   173   ar
   203   171   173   ar
   204   171   169   ar
   205   173   172   ar
   206   168   169    1
   207   168   165    1
   208   169   170   ar
   209   166   165    1
   210   172   170   ar
   211   160   161    2
   212   165   164    1
   213    69    68    2
   214    73    72    1
   215    68    67    1
   216    72    71    1
   217    67    70    1
   218    67    66    1
   219    70    71    1
