@<TRIPOS>MOLECULE
tmp/7rntA00.pdb
 99 95 0 0 0
SMALL
GASTEIGER

@<TRIPOS>ATOM
      1  N         27.8740   15.4460    4.0100 N.3    36  ASN36      -0.1240
      2  CA        26.6940   16.0690    3.4170 C.3    36  ASN36       0.1653
      3  C         26.0550   17.0890    4.3570 C.2    36  ASN36       0.2266
      4  O         24.9220   17.5270    4.1470 O.2    36  ASN36      -0.2867
      5  CB        25.5920   15.0770    2.9770 C.3    36  ASN36       0.1155
      6  CG        25.9340   14.1390    1.8290 C.2    36  ASN36       0.2627
      7  OD1       25.1430   13.2170    1.5340 O.2    36  ASN36      -0.2716
      8  ND2       27.0880   14.3620    1.1760 N.am   36  ASN36      -0.0877
      9  N         24.6640   17.2740    7.8090 N.3    38  TYR38      -0.1241
     10  CA        23.3190   17.0930    8.3690 C.3    38  TYR38       0.1605
     11  C         23.2930   17.7520    9.7460 C.2    38  TYR38       0.2264
     12  O         24.3060   17.7530   10.4190 O.2    38  TYR38      -0.2867
     13  CB        22.9400   15.6080    8.5330 C.3    38  TYR38       0.0534
     14  CG        22.8470   14.8720    7.2230 C.ar   38  TYR38      -0.0201
     15  CD1       21.6960   14.9340    6.4390 C.ar   38  TYR38      -0.0009
     16  CD2       23.9340   14.1200    6.7740 C.ar   38  TYR38      -0.0009
     17  CE1       21.6350   14.2500    5.2220 C.ar   38  TYR38       0.0417
     18  CE2       23.8830   13.4300    5.5610 C.ar   38  TYR38       0.0417
     19  CZ        22.7300   13.5050    4.7790 C.ar   38  TYR38       0.1957
     20  OH        22.6580   12.8590    3.5550 O.3    38  TYR38      -0.2866
     21  N         20.1460   19.1840    7.3030 N.3    40  HIS40      -0.1241
     22  CA        20.0490   20.1240    6.2130 C.3    40  HIS40       0.1621
     23  C         18.6360   20.3170    5.7570 C.2    40  HIS40       0.2264
     24  O         17.7580   19.5230    6.0460 O.2    40  HIS40      -0.2867
     25  CB        21.0140   19.8960    5.0420 C.3    40  HIS40       0.0745
     26  CG        20.7410   18.7180    4.1570 C.ar   40  HIS40       0.0817
     27  ND1       19.6190   18.5980    3.3330 N.ar   40  HIS40      -0.2268
     28  CD2       21.5160   17.6150    3.9760 C.ar   40  HIS40       0.1154
     29  CE1       19.7390   17.4390    2.6930 C.ar   40  HIS40       0.1986
     30  NE2       20.8680   16.8320    3.0570 N.ar   40  HIS40      -0.2212
     31  N         16.1820   17.5740    7.3630 N.3    58  GLU58      -0.1245
     32  CA        16.3490   16.1300    7.3690 C.3    58  GLU58       0.1567
     33  C         17.5900   15.7210    8.1290 C.2    58  GLU58       0.2260
     34  O         18.6170   16.3970    8.0840 O.2    58  GLU58      -0.2867
     35  CB        16.3210   15.5330    5.9580 C.3    58  GLU58       0.0388
     36  CG        17.4980   16.0300    5.1190 C.3    58  GLU58       0.1160
     37  CD        17.7420   15.2040    3.8940 C.2    58  GLU58       0.3649
     38  OE1       18.3300   14.0790    4.1650 O.co2  58  GLU58      -0.2457
     39  OE2       17.4390   15.5580    2.7700 O.co2  58  GLU58      -0.2457
     40  N         25.5520    7.9150    5.9730 N.3    73  PRO73      -0.2102
     41  CA        24.2510    8.2350    6.5150 C.3    73  PRO73       0.1504
     42  C         23.1640    7.2250    6.1840 C.2    73  PRO73       0.2576
     43  O         22.0550    7.3350    6.6910 O.2    73  PRO73      -0.2718
     44  CB        23.8700    9.5610    5.8560 C.3    73  PRO73       0.0282
     45  CG        24.6730    9.6280    4.5680 C.3    73  PRO73       0.0208
     46  CD        25.8810    8.7340    4.7690 C.3    73  PRO73       0.0893
     47  N         23.4520    6.2550    5.3200 N.am   74  GLY74      -0.1943
     48  CA        22.4270    5.2940    4.9770 C.3    74  GLY74       0.2014
     49  C         21.3500    5.9710    4.1490 C.2    74  GLY74       0.2638
     50  O         21.5730    7.0480    3.6140 O.2    74  GLY74      -0.2714
     51  N         20.1840    5.3550    4.0370 N.am   75  ALA75      -0.1977
     52  CA        19.1240    5.9040    3.2190 C.3    75  ALA75       0.1597
     53  C         17.9480    6.4760    3.9400 C.2    75  ALA75       0.2287
     54  O         17.0550    7.0400    3.3010 O.2    75  ALA75      -0.2864
     55  CB        18.5580    4.7760    2.3670 C.3    75  ALA75       0.0319
     56  N         15.8810    8.8580    6.6870 N.3    77  ARG77      -0.1245
     57  CA        15.8750   10.1840    7.2940 C.3    77  ARG77       0.1563
     58  C         14.6190   10.4720    8.0390 C.2    77  ARG77       0.2260
     59  O         13.5230   10.0500    7.6430 O.2    77  ARG77      -0.2867
     60  CB        15.9060   11.3060    6.2520 C.3    77  ARG77       0.0307
     61  CG        16.9720   11.1400    5.1990 C.3    77  ARG77       0.0489
     62  CD        18.3620   11.3930    5.7420 C.3    77  ARG77       0.2205
     63  NE        19.3640   11.2560    4.6950 N.pl3  77  ARG77      -0.0865
     64  CZ        20.0620   10.1420    4.4700 C.cat  77  ARG77       0.5346
     65  NH1       19.9080    9.0420    5.1960 N.pl3  77  ARG77       0.1354
     66  NH2       20.9450   10.1190    3.4870 N.pl3  77  ARG77       0.1354
     67  N         15.3840    6.9000    0.7810 N.3    92  HIS92      -0.1241
     68  CA        15.9090    6.8670   -0.5640 C.3    92  HIS92       0.1621
     69  C         15.6830    5.4520   -1.0920 C.2    92  HIS92       0.2264
     70  O         15.7100    5.1860   -2.2880 O.2    92  HIS92      -0.2867
     71  CB        17.4240    7.1310   -0.5700 C.3    92  HIS92       0.0745
     72  CG        17.7780    8.5700   -0.3810 C.ar   92  HIS92       0.0817
     73  ND1       17.2210    9.5440   -1.1910 N.ar   92  HIS92      -0.2268
     74  CD2       18.6190    9.1850    0.5050 C.ar   92  HIS92       0.1154
     75  CE1       17.7180   10.7000   -0.7920 C.ar   92  HIS92       0.1986
     76  NE2       18.5610   10.5240    0.2170 N.ar   92  HIS92      -0.2212
     77  N         17.3600    7.5000   -7.9030 N.3    97  GLY97      -0.1210
     78  CA        18.3980    8.4150   -7.5410 C.3    97  GLY97       0.1956
     79  C         18.3790    8.8370   -6.0860 C.2    97  GLY97       0.2611
     80  O         18.4180    8.0120   -5.1580 O.2    97  GLY97      -0.2717
     81  N         18.3330   10.1640   -5.9350 N.am   98  ASN98      -0.1974
     82  CA        18.3400   10.8040   -4.6470 C.3    98  ASN98       0.1688
     83  C         16.9730   11.2460   -4.2030 C.2    98  ASN98       0.2292
     84  O         16.8300   12.0520   -3.2760 O.2    98  ASN98      -0.2864
     85  CB        19.3960   11.9010   -4.5540 C.3    98  ASN98       0.1181
     86  CG        20.7560   11.3790   -4.8160 C.2    98  ASN98       0.2629
     87  OD1       21.1820   10.4380   -4.1820 O.2    98  ASN98      -0.2716
     88  ND2       21.4690   11.9520   -5.7330 N.am   98  ASN98      -0.0877
     89  N         13.0040   10.4080   -2.8510 N.3   100  PHE100     -0.1241
     90  CA        12.5330    9.8200   -1.6340 C.3   100  PHE100      0.1605
     91  C         11.1560    9.2320   -1.7620 C.2   100  PHE100      0.2264
     92  O         10.3580    9.5870   -2.6140 O.2   100  PHE100     -0.2867
     93  CB        12.3530   10.9600   -0.5750 C.3   100  PHE100      0.0534
     94  CG        13.6090   11.4330    0.1120 C.ar  100  PHE100     -0.0203
     95  CD1       14.1810   10.5610    1.0300 C.ar  100  PHE100     -0.0042
     96  CD2       14.2260   12.6720   -0.0970 C.ar  100  PHE100     -0.0042
     97  CE1       15.3480   10.8840    1.7210 C.ar  100  PHE100     -0.0003
     98  CE2       15.3990   13.0110    0.5870 C.ar  100  PHE100     -0.0003
     99  CZ        15.9630   12.1160    1.4980 C.ar  100  PHE100     -0.0000
@<TRIPOS>BOND
     1    77    78    1
     2    78    79    1
     3    79    81   am
     4    79    80    2
     5    81    82    1
     6    88    86   am
     7    86    85    1
     8    86    87    2
     9    82    85    1
    10    82    83    1
    11    83    84    2
    12    89    90    1
    13    92    91    2
    14    70    69    2
    15    91    90    1
    16    90    93    1
    17    73    75   ar
    18    73    72   ar
    19    69    68    1
    20    75    76   ar
    21    93    94    1
    22    71    68    1
    23    71    72    1
    24    68    67    1
    25    72    74   ar
    26    96    94   ar
    27    96    98   ar
    28    94    95   ar
    29    76    74   ar
    30    98    99   ar
    31    95    97   ar
    32     8     6   am
    33    99    97   ar
    34     7     6    2
    35     6     5    1
    36    55    52    1
    37    29    30   ar
    38    29    27   ar
    39    39    37   ar
    40     5     2    1
    41    30    28   ar
    42    52    53    1
    43    52    51    1
    44    54    53    2
    45    27    26   ar
    46     2     1    1
    47     2     3    1
    48    66    64    1
    49    20    19    1
    50    50    49    2
    51    37    38   ar
    52    37    36    1
    53    28    26   ar
    54    51    49   am
    55     4     3    2
    56    49    48    1
    57    26    25    1
    58    64    63    2
    59    64    65    1
    60    45    46    1
    61    45    44    1
    62    63    62    1
    63    46    40    1
    64    19    17   ar
    65    19    18   ar
    66    48    47    1
    67    25    22    1
    68    36    35    1
    69    61    62    1
    70    61    60    1
    71    17    15   ar
    72    47    42   am
    73    18    16   ar
    74    23    24    2
    75    23    22    1
    76    44    41    1
    77    35    32    1
    78    40    41    1
    79    42    41    1
    80    42    43    2
    81    22    21    1
    82    60    57    1
    83    15    14   ar
    84    56    57    1
    85    16    14   ar
    86    14    13    1
    87    57    58    1
    88    31    32    1
    89    32    33    1
    90    59    58    2
    91     9    10    1
    92    34    33    2
    93    10    13    1
    94    10    11    1
    95    11    12    2
