@<TRIPOS>MOLECULE
tmp/7tlnA00.pdb
 151 148 0 0 0
SMALL
GASTEIGER

@<TRIPOS>ATOM
      1  N         47.1410   15.4230    0.0960 N.3   112  ASN112     -0.1225
      2  CA        47.8460   16.2600   -0.8400 C.3   112  ASN112      0.1785
      3  C         47.2910   17.6870   -0.8520 C.2   112  ASN112      0.2597
      4  O         46.3480   18.0170   -0.1580 O.2   112  ASN112     -0.2718
      5  CB        47.7300   15.5970   -2.2010 C.3   112  ASN112      0.1169
      6  CG        48.9530   15.7380   -3.0930 C.2   112  ASN112      0.2627
      7  OD1       49.7470   16.6890   -3.0010 O.2   112  ASN112     -0.2716
      8  ND2       49.1440   14.7300   -3.9420 N.am  112  ASN112     -0.0877
      9  N         47.9740   18.5470   -1.5720 N.am  113  ALA113     -0.1966
     10  CA        47.6520   19.9210   -1.7960 C.3   113  ALA113      0.1728
     11  C         47.9560   20.0500   -3.2670 C.2   113  ALA113      0.2616
     12  O         48.3290   19.0430   -3.7490 O.2   113  ALA113     -0.2715
     13  CB        48.5660   20.8040   -0.9600 C.3   113  ALA113      0.0334
     14  N         47.5000   21.1040   -3.9800 N.am  114  PHE114     -0.1960
     15  CA        47.7180   21.4600   -5.3470 C.3   114  PHE114      0.1771
     16  C         47.2310   22.8210   -5.8220 C.2   114  PHE114      0.2619
     17  O         46.3100   23.4260   -5.3790 O.2   114  PHE114     -0.2715
     18  CB        47.2240   20.3890   -6.2920 C.3   114  PHE114      0.0574
     19  CG        45.7930   20.1000   -6.0860 C.ar  114  PHE114     -0.0200
     20  CD1       44.8880   20.5770   -7.0290 C.ar  114  PHE114     -0.0042
     21  CD2       45.3480   19.2230   -5.1060 C.ar  114  PHE114     -0.0042
     22  CE1       43.5240   20.3130   -6.9300 C.ar  114  PHE114     -0.0003
     23  CE2       43.9820   18.9800   -4.9810 C.ar  114  PHE114     -0.0003
     24  CZ        43.0640   19.5200   -5.8780 C.ar  114  PHE114     -0.0000
     25  N         47.9120   23.2770   -6.8280 N.am  115  TRP115     -0.1974
     26  CA        47.6370   24.4250   -7.6440 C.3   115  TRP115      0.1640
     27  C         46.8560   23.7900   -8.7950 C.2   115  TRP115      0.2290
     28  O         47.3180   22.8640   -9.4710 O.2   115  TRP115     -0.2864
     29  CB        48.9060   25.1560   -8.1640 C.3   115  TRP115      0.0576
     30  CG        48.4990   26.1930   -9.1380 C.ar  115  TRP115      0.0006
     31  CD1       48.7140   26.0800  -10.4550 C.ar  115  TRP115      0.0946
     32  CD2       47.8760   27.4880   -8.9440 C.ar  115  TRP115      0.0152
     33  NE1       48.2410   27.1630  -11.1350 N.ar  115  TRP115     -0.2442
     34  CE2       47.7720   28.0700  -10.2260 C.ar  115  TRP115      0.0810
     35  CE3       47.4700   28.2510   -7.8320 C.ar  115  TRP115      0.0012
     36  CZ2       47.2910   29.3530  -10.4060 C.ar  115  TRP115      0.0191
     37  CZ3       47.0620   29.5330   -7.9930 C.ar  115  TRP115      0.0001
     38  CH2       46.8890   30.0440   -9.2640 C.ar  115  TRP115      0.0015
     39  N         49.6950   12.3660    6.8780 N.3   130  PHE130     -0.1241
     40  CA        49.7430   13.8120    6.8630 C.3   130  PHE130      0.1605
     41  C         48.7030   14.3290    7.7580 C.2   130  PHE130      0.2264
     42  O         47.7250   13.6650    7.9650 O.2   130  PHE130     -0.2867
     43  CB        49.3610   14.4440    5.4850 C.3   130  PHE130      0.0534
     44  CG        50.4500   14.4590    4.4390 C.ar  130  PHE130     -0.0203
     45  CD1       50.4440   13.5880    3.3500 C.ar  130  PHE130     -0.0042
     46  CD2       51.4730   15.3940    4.5020 C.ar  130  PHE130     -0.0042
     47  CE1       51.4500   13.5500    2.3820 C.ar  130  PHE130     -0.0003
     48  CE2       52.4460   15.3990    3.4990 C.ar  130  PHE130     -0.0003
     49  CZ        52.4960   14.4600    2.4680 C.ar  130  PHE130     -0.0000
     50  N         47.7360   19.8850    5.2860 N.3   133  LEU133     -0.1245
     51  CA        48.8240   20.3420    4.4840 C.3   133  LEU133      0.1561
     52  C         49.2600   21.8220    4.5150 C.2   133  LEU133      0.2260
     53  O         50.4120   22.1490    4.2320 O.2   133  LEU133     -0.2867
     54  CB        48.7580   19.6520    3.0990 C.3   133  LEU133      0.0270
     55  CG        49.1050   18.1670    3.1850 C.3   133  LEU133      0.0019
     56  CD1       47.8270   17.2940    3.3680 C.3   133  LEU133      0.0001
     57  CD2       49.8350   17.8310    1.9020 C.3   133  LEU133      0.0001
     58  N         55.2810   23.7580    1.7920 N.3   139  VAL139     -0.1245
     59  CA        54.1510   23.1890    1.0210 C.3   139  VAL139      0.1561
     60  C         53.3490   24.3050    0.3510 C.2   139  VAL139      0.2260
     61  O         53.1650   24.2550   -0.8470 O.2   139  VAL139     -0.2867
     62  CB        53.2530   22.2610    1.8880 C.3   139  VAL139      0.0252
     63  CG1       51.9600   21.8750    1.1940 C.3   139  VAL139      0.0019
     64  CG2       54.0280   21.0320    2.3720 C.3   139  VAL139      0.0019
     65  N         55.5380   26.0270   -2.2310 N.3   142  HIS142     -0.1226
     66  CA        55.7460   25.1440   -3.3590 C.3   142  HIS142      0.1752
     67  C         54.5980   25.2390   -4.3290 C.2   142  HIS142      0.2595
     68  O         54.7750   25.3460   -5.5010 O.2   142  HIS142     -0.2718
     69  CB        55.9150   23.7190   -2.8430 C.3   142  HIS142      0.0759
     70  CG        56.0210   22.6540   -3.8970 C.ar  142  HIS142      0.0818
     71  ND1       57.1610   21.8520   -4.0640 N.ar  142  HIS142     -0.2268
     72  CD2       55.0270   22.2130   -4.6840 C.ar  142  HIS142      0.1154
     73  CE1       56.8560   21.0220   -5.0580 C.ar  142  HIS142      0.1986
     74  NE2       55.5840   21.2240   -5.4820 N.ar  142  HIS142     -0.2212
     75  N         53.4040   25.2110   -3.8060 N.am  143  GLU143     -0.1979
     76  CA        52.1770   25.3630   -4.5620 C.3   143  GLU143      0.1602
     77  C         51.9440   26.6890   -5.2320 C.2   143  GLU143      0.2287
     78  O         51.5800   26.7160   -6.3920 O.2   143  GLU143     -0.2864
     79  CB        50.9620   25.0550   -3.7250 C.3   143  GLU143      0.0415
     80  CG        51.0100   23.6500   -3.2050 C.3   143  GLU143      0.1163
     81  CD        51.0660   22.4000   -4.1020 C.2   143  GLU143      0.3649
     82  OE1       50.9290   22.4950   -5.3570 O.co2 143  GLU143     -0.2457
     83  OE2       51.1930   21.4940   -3.3950 O.co2 143  GLU143     -0.2457
     84  N         54.0480   27.0900   -8.2220 N.3   146  HIS146     -0.1241
     85  CA        53.4920   26.5110   -9.4490 C.3   146  HIS146      0.1621
     86  C         52.6800   27.5250  -10.2280 C.2   146  HIS146      0.2264
     87  O         52.6560   27.3890  -11.4240 O.2   146  HIS146     -0.2867
     88  CB        52.5230   25.3340   -9.2190 C.3   146  HIS146      0.0745
     89  CG        53.2290   24.0110   -8.9590 C.ar  146  HIS146      0.0817
     90  ND1       54.2010   23.5080   -9.8000 N.ar  146  HIS146     -0.2268
     91  CD2       53.0790   23.1440   -7.9590 C.ar  146  HIS146      0.1154
     92  CE1       54.5790   22.3400   -9.3260 C.ar  146  HIS146      0.1986
     93  NE2       53.9750   22.1000   -8.1680 N.ar  146  HIS146     -0.2212
     94  N         53.8390   19.7930  -17.4460 N.3   157  TYR157     -0.1241
     95  CA        53.8860   18.8490  -16.3730 C.3   157  TYR157      0.1605
     96  C         54.2080   17.4100  -16.7460 C.2   157  TYR157      0.2264
     97  O         53.5310   16.4690  -16.3380 O.2   157  TYR157     -0.2867
     98  CB        52.6770   19.0130  -15.4360 C.3   157  TYR157      0.0534
     99  CG        53.0030   18.7520  -13.9340 C.ar  157  TYR157     -0.0201
    100  CD1       52.3190   17.7200  -13.2910 C.ar  157  TYR157     -0.0009
    101  CD2       53.9200   19.5000  -13.1760 C.ar  157  TYR157     -0.0009
    102  CE1       52.5300   17.4580  -11.9370 C.ar  157  TYR157      0.0417
    103  CE2       54.1770   19.2330  -11.8290 C.ar  157  TYR157      0.0417
    104  CZ        53.4800   18.1830  -11.2210 C.ar  157  TYR157      0.1957
    105  OH        53.5570   17.9500   -9.8770 O.3   157  TYR157     -0.2866
    106  N         58.7050   20.8910  -10.8550 N.3   166  GLU166     -0.1245
    107  CA        58.6930   20.3880   -9.4600 C.3   166  GLU166      0.1567
    108  C         59.8530   20.8790   -8.6020 C.2   166  GLU166      0.2260
    109  O         59.6680   21.4230   -7.5510 O.2   166  GLU166     -0.2867
    110  CB        58.6630   18.8490   -9.4480 C.3   166  GLU166      0.0388
    111  CG        57.2160   18.3560   -9.5330 C.3   166  GLU166      0.1160
    112  CD        56.3450   18.9900   -8.4210 C.2   166  GLU166      0.3649
    113  OE1       55.2290   19.4660   -8.6040 O.co2 166  GLU166     -0.2457
    114  OE2       56.7700   18.9350   -7.2980 O.co2 166  GLU166     -0.2457
    115  N         61.6680   18.8210    2.3740 N.3   188  ILE188     -0.1245
    116  CA        60.2780   19.1300    1.9420 C.3   188  ILE188      0.1561
    117  C         59.1140   18.3870    2.7140 C.2   188  ILE188      0.2260
    118  O         59.0040   17.1590    2.7160 O.2   188  ILE188     -0.2867
    119  CB        60.0210   19.0440    0.4160 C.3   188  ILE188      0.0252
    120  CG1       61.1080   19.7860   -0.3630 C.3   188  ILE188      0.0019
    121  CG2       58.5610   19.4460    0.0110 C.3   188  ILE188      0.0019
    122  CD1       61.1700   21.2660   -0.0770 C.3   188  ILE188      0.0001
    123  N         59.1490   14.3640    3.2120 N.3   202  LEU202     -0.1231
    124  CA        58.6160   13.7610    1.9790 C.3   202  LEU202      0.1693
    125  C         59.7410   13.5650    0.9500 C.2   202  LEU202      0.2591
    126  O         59.7530   12.5840    0.2230 O.2   202  LEU202     -0.2718
    127  CB        57.5770   14.7710    1.4700 C.3   202  LEU202      0.0284
    128  CG        56.5990   14.3790    0.3950 C.3   202  LEU202      0.0019
    129  CD1       55.8550   13.1440    0.8720 C.3   202  LEU202      0.0001
    130  CD2       55.5910   15.5300    0.2780 C.3   202  LEU202      0.0001
    131  N         60.6440   14.5620    0.8780 N.am  203  ARG203     -0.1980
    132  CA        61.7850   14.6290    0.0060 C.3   203  ARG203      0.1597
    133  C         62.8670   15.4500    0.6770 C.2   203  ARG203      0.2287
    134  O         62.5490   16.3260    1.4830 O.2   203  ARG203     -0.2864
    135  CB        61.5640   15.3540   -1.3140 C.3   203  ARG203      0.0334
    136  CG        60.5660   14.7740   -2.2900 C.3   203  ARG203      0.0492
    137  CD        60.4120   15.6420   -3.5440 C.3   203  ARG203      0.2205
    138  NE        59.5660   16.8500   -3.4240 N.pl3 203  ARG203     -0.0865
    139  CZ        58.2310   16.9130   -3.4030 C.cat 203  ARG203      0.5346
    140  NH1       57.4800   15.8210   -3.3770 N.pl3 203  ARG203      0.1354
    141  NH2       57.5890   18.1010   -3.3740 N.pl3 203  ARG203      0.1354
    142  N         58.1560   14.0470   -9.8050 N.3   231  HIS231     -0.1241
    143  CA        58.4720   14.1150   -8.3760 C.3   231  HIS231      0.1621
    144  C         59.7220   13.2940   -8.0110 C.2   231  HIS231      0.2264
    145  O         60.2390   13.3630   -6.8770 O.2   231  HIS231     -0.2867
    146  CB        57.3230   13.8090   -7.3160 C.3   231  HIS231      0.0745
    147  CG        56.0920   14.6650   -7.4100 C.ar  231  HIS231      0.0817
    148  ND1       55.1070   14.3470   -8.2930 N.ar  231  HIS231     -0.2268
    149  CD2       55.8040   15.8340   -6.8170 C.ar  231  HIS231      0.1154
    150  CE1       54.1950   15.2860   -8.2090 C.ar  231  HIS231      0.1986
    151  NE2       54.5770   16.1980   -7.3040 N.ar  231  HIS231     -0.2212
@<TRIPOS>BOND
     1    94    95    1
     2    96    95    1
     3    96    97    2
     4    95    98    1
     5    98    99    1
     6    99   100   ar
     7    99   101   ar
     8   100   102   ar
     9   101   103   ar
    10   102   104   ar
    11   103   104   ar
    12    87    86    2
    13   104   105    1
    14    33    31   ar
    15    33    34   ar
    16   106   107    1
    17    31    30   ar
    18    36    34   ar
    19    36    38   ar
    20    86    85    1
    21    34    32   ar
    22   142   143    1
    23    90    92   ar
    24    90    89   ar
    25   111   110    1
    26   111   112    1
    27    28    27    2
    28   107   110    1
    29   107   108    1
    30    85    88    1
    31    85    84    1
    32    92    93   ar
    33    38    37   ar
    34    88    89    1
    35    30    32   ar
    36    30    29    1
    37    89    91   ar
    38    32    35   ar
    39    27    26    1
    40   113   112   ar
    41   108   109    2
    42   112   114   ar
    43   143   144    1
    44   143   146    1
    45   148   150   ar
    46   148   147   ar
    47   150   151   ar
    48    93    91   ar
    49    29    26    1
    50   144   145    2
    51    37    35   ar
    52    26    25    1
    53   147   146    1
    54   147   149   ar
    55   151   149   ar
    56    20    22   ar
    57    20    19   ar
    58    22    24   ar
    59    25    16   am
    60    78    77    2
    61    18    19    1
    62    18    15    1
    63    19    21   ar
    64    24    23   ar
    65    16    17    2
    66    16    15    1
    67    68    67    2
    68    74    73   ar
    69    74    72   ar
    70    82    81   ar
    71    15    14    1
    72    77    76    1
    73    21    23   ar
    74    73    71   ar
    75    72    70   ar
    76    76    75    1
    77    76    79    1
    78    67    75   am
    79    67    66    1
    80    81    83   ar
    81    81    80    1
    82    71    70   ar
    83    14    11   am
    84     8     6   am
    85    70    69    1
    86    12    11    2
    87    79    80    1
    88   137   138    1
    89   137   136    1
    90   138   139    2
    91   139   140    1
    92   139   141    1
    93    66    69    1
    94    66    65    1
    95    11    10    1
    96     6     7    2
    97     6     5    1
    98   136   135    1
    99     5     2    1
   100    10     9    1
   101    10    13    1
   102     9     3   am
   103   135   132    1
   104     3     2    1
   105     3     4    2
   106    61    60    2
   107     2     1    1
   108   120   122    1
   109   120   119    1
   110   132   133    1
   111   132   131    1
   112   121   119    1
   113   126   125    2
   114   130   128    1
   115    60    59    1
   116   128   129    1
   117   128   127    1
   118   119   116    1
   119   133   134    2
   120   131   125   am
   121   125   124    1
   122    59    58    1
   123    59    62    1
   124    63    62    1
   125   127   124    1
   126    62    64    1
   127    57    55    1
   128   116   115    1
   129   116   117    1
   130   124   123    1
   131    47    49   ar
   132    47    45   ar
   133    49    48   ar
   134   117   118    2
   135    54    55    1
   136    54    51    1
   137    55    56    1
   138    45    44   ar
   139    48    46   ar
   140    53    52    2
   141    44    46   ar
   142    44    43    1
   143    51    52    1
   144    51    50    1
   145    43    40    1
   146    40    39    1
   147    40    41    1
   148    41    42    2
