@<TRIPOS>MOLECULE
tmp/7upjB00.pdb
 81 75 0 0 0
SMALL
GASTEIGER

@<TRIPOS>ATOM
      1  N          9.7200   35.7930   -1.6440 N.3     8  ARG8       -0.1245
      2  CA        10.3950   34.4970   -1.8360 C.3     8  ARG8        0.1563
      3  C         11.3150   34.4450   -3.0540 C.2     8  ARG8        0.2260
      4  O         10.9130   34.7900   -4.1590 O.2     8  ARG8       -0.2867
      5  CB         9.3910   33.3380   -1.9020 C.3     8  ARG8        0.0307
      6  CG         8.7650   33.0250   -0.5800 C.3     8  ARG8        0.0489
      7  CD         7.9140   31.7890   -0.6130 C.3     8  ARG8        0.2205
      8  NE         7.1640   31.6500    0.6320 N.pl3   8  ARG8       -0.0865
      9  CZ         6.1670   30.7850    0.8110 C.cat   8  ARG8        0.5346
     10  NH1        5.8080   29.9680   -0.1750 N.pl3   8  ARG8        0.1354
     11  NH2        5.4800   30.7810    1.9460 N.pl3   8  ARG8        0.1354
     12  N         12.7390   27.1700   -5.1940 N.3    23  LEU23      -0.1245
     13  CA        13.1920   28.1030   -4.1830 C.3    23  LEU23       0.1561
     14  C         14.7000   27.9510   -3.8990 C.2    23  LEU23       0.2260
     15  O         15.1860   26.8250   -3.7730 O.2    23  LEU23      -0.2867
     16  CB        12.4050   27.8020   -2.9120 C.3    23  LEU23       0.0270
     17  CG        12.4780   28.6330   -1.6400 C.3    23  LEU23       0.0019
     18  CD1       11.6810   29.9020   -1.8470 C.3    23  LEU23       0.0001
     19  CD2       11.8600   27.8200   -0.4840 C.3    23  LEU23       0.0001
     20  N         17.4370   27.9320   -1.3990 N.3    25  ASP25      -0.1239
     21  CA        17.5070   27.7420    0.0690 C.3    25  ASP25       0.1674
     22  C         18.9610   27.4910    0.6030 C.2    25  ASP25       0.2266
     23  O         19.4810   26.3840    0.5420 O.2    25  ASP25      -0.2867
     24  CB        16.5300   26.5840    0.4180 C.3    25  ASP25       0.1410
     25  CG        16.3380   26.3340    1.9270 C.2    25  ASP25       0.3668
     26  OD1       17.2100   26.6400    2.7310 O.co2  25  ASP25      -0.2456
     27  OD2       15.3080   25.7780    2.3290 O.co2  25  ASP25      -0.2456
     28  N         19.9820   27.1970    3.6230 N.3    27  GLY27      -0.1210
     29  CA        20.0160   26.3340    4.7990 C.3    27  GLY27       0.1956
     30  C         19.9700   24.8300    4.5490 C.2    27  GLY27       0.2611
     31  O         20.1590   24.0260    5.4640 O.2    27  GLY27      -0.2717
     32  N         19.7190   24.4440    3.3050 N.am   28  ALA28      -0.1979
     33  CA        19.6410   23.0360    2.9260 C.3    28  ALA28       0.1597
     34  C         20.9520   22.5110    2.3300 C.2    28  ALA28       0.2287
     35  O         21.5870   23.1850    1.5230 O.2    28  ALA28      -0.2864
     36  CB        18.4980   22.8350    1.9330 C.3    28  ALA28       0.0319
     37  N         15.9510   14.8150    7.3800 N.3    48  GLY48      -0.1210
     38  CA        15.0970   15.4540    8.3570 C.3    48  GLY48       0.1956
     39  C         14.8530   16.9200    8.0430 C.2    48  GLY48       0.2612
     40  O         15.7520   17.6000    7.5370 O.2    48  GLY48      -0.2717
     41  N         13.6210   17.3760    8.2940 N.am   49  GLY49      -0.1942
     42  CA        13.2380   18.7590    8.0770 C.3    49  GLY49       0.2014
     43  C         12.7480   19.3400    9.3940 C.2    49  GLY49       0.2638
     44  O         13.0270   18.7990   10.4700 O.2    49  GLY49      -0.2714
     45  N         11.9600   20.4040    9.3210 N.am   50  ILE50      -0.1977
     46  CA        11.4370   21.0450   10.5230 C.3    50  ILE50       0.1596
     47  C         10.3310   20.2270   11.1920 C.2    50  ILE50       0.2287
     48  O         10.1810   20.2740   12.4100 O.2    50  ILE50      -0.2864
     49  CB        10.9650   22.5050   10.2140 C.3    50  ILE50       0.0276
     50  CG1       11.5060   23.4490   11.2650 C.3    50  ILE50       0.0022
     51  CG2        9.4260   22.6350   10.1530 C.3    50  ILE50       0.0022
     52  CD1       11.6390   24.8340   10.7300 C.3    50  ILE50       0.0001
     53  N          7.7740   16.9070   -0.8840 N.3    80  THR80      -0.1204
     54  CA         8.2030   18.1940   -0.3660 C.3    80  THR80       0.1979
     55  C          7.1390   19.2670   -0.6800 C.2    80  THR80       0.2460
     56  O          6.3700   19.1180   -1.6270 O.2    80  THR80      -0.2732
     57  CB         9.5960   18.5450   -0.9840 C.3    80  THR80       0.1783
     58  OG1       10.0070   19.8470   -0.5470 O.3    80  THR80      -0.2211
     59  CG2        9.5480   18.4930   -2.5230 C.3    80  THR80       0.0376
     60  N          7.0000   20.3050    0.1730 N.am   81  PRO81      -0.2717
     61  CA         6.0000   21.3490   -0.1080 C.3    81  PRO81       0.1535
     62  C          6.2650   22.2380   -1.3550 C.2    81  PRO81       0.2598
     63  O          5.3250   22.8090   -1.9100 O.2    81  PRO81      -0.2715
     64  CB         5.9510   22.1430    1.2100 C.3    81  PRO81       0.0310
     65  CG         7.3060   21.9110    1.8240 C.3    81  PRO81       0.0237
     66  CD         7.5440   20.4600    1.5420 C.3    81  PRO81       0.0939
     67  N          7.5360   22.3610   -1.7620 N.am   82  VAL82      -0.1978
     68  CA         7.9820   23.1270   -2.9490 C.3    82  VAL82       0.1596
     69  C          9.3110   22.5370   -3.4160 C.2    82  VAL82       0.2287
     70  O          9.9540   21.8250   -2.6510 O.2    82  VAL82      -0.2864
     71  CB         8.2810   24.6380   -2.6660 C.3    82  VAL82       0.0276
     72  CG1        7.0150   25.4150   -2.4840 C.3    82  VAL82       0.0022
     73  CG2        9.1830   24.7990   -1.4750 C.3    82  VAL82       0.0022
     74  N         13.1900   22.6030   -4.0710 N.3    84  ILE84      -0.1245
     75  CA        14.2530   23.2630   -3.3230 C.3    84  ILE84       0.1561
     76  C         15.6150   23.0980   -3.9530 C.2    84  ILE84       0.2260
     77  O         16.0140   21.9950   -4.2830 O.2    84  ILE84      -0.2867
     78  CB        14.3750   22.6180   -1.9170 C.3    84  ILE84       0.0252
     79  CG1       13.0670   22.7250   -1.1640 C.3    84  ILE84       0.0019
     80  CG2       15.4050   23.2870   -1.0950 C.3    84  ILE84       0.0019
     81  CD1       12.7110   24.1390   -0.8030 C.3    84  ILE84       0.0001
@<TRIPOS>BOND
     1    12    13    1
     2    77    76    2
     3    13    14    1
     4    13    16    1
     5     4     3    2
     6    74    75    1
     7    76    75    1
     8    14    15    2
     9    69    68    1
    10    69    70    2
    11    75    78    1
    12     3     2    1
    13    68    71    1
    14    68    67    1
    15    16    17    1
    16    71    72    1
    17    71    73    1
    18    59    57    1
    19    78    79    1
    20    78    80    1
    21    63    62    2
    22     5     2    1
    23     5     6    1
    24    18    17    1
    25     2     1    1
    26    67    62   am
    27    17    19    1
    28    56    55    2
    29    20    21    1
    30    62    61    1
    31    79    81    1
    32    57    58    1
    33    57    54    1
    34    53    54    1
    35    55    54    1
    36    55    60   am
    37     7     6    1
    38     7     8    1
    39    10     9    1
    40    61    60    1
    41    61    64    1
    42    21    24    1
    43    21    22    1
    44    60    66    1
    45    24    25    1
    46    23    22    2
    47     8     9    2
    48     9    11    1
    49    64    65    1
    50    35    34    2
    51    66    65    1
    52    25    27   ar
    53    25    26   ar
    54    36    33    1
    55    34    33    1
    56    33    32    1
    57    32    30   am
    58    28    29    1
    59    30    29    1
    60    30    31    2
    61    37    38    1
    62    40    39    2
    63    39    41   am
    64    39    38    1
    65    42    41    1
    66    42    43    1
    67    45    43   am
    68    45    46    1
    69    43    44    2
    70    51    49    1
    71    49    46    1
    72    49    50    1
    73    46    47    1
    74    52    50    1
    75    47    48    2
