@<TRIPOS>MOLECULE
tmp/830cB00.pdb
 169 170 0 0 0
SMALL
GASTEIGER

@<TRIPOS>ATOM
      1  N         14.2820   -2.2860   68.9930 N.3    80  GLY80      -0.1210
      2  CA        13.4950   -1.5050   68.0540 C.3    80  GLY80       0.1956
      3  C         14.3640   -0.3780   67.5150 C.2    80  GLY80       0.2612
      4  O         15.5130   -0.5990   67.1200 O.2    80  GLY80      -0.2717
      5  N         13.8260    0.8350   67.5120 N.am   81  LEU81      -0.1965
      6  CA        14.5710    1.9960   67.0540 C.3    81  LEU81       0.1728
      7  C         15.7880    2.1840   67.9490 C.2    81  LEU81       0.2616
      8  O         15.6890    2.0850   69.1820 O.2    81  LEU81      -0.2715
      9  CB        13.7140    3.2630   67.1130 C.3    81  LEU81       0.0311
     10  CG        12.6110    3.5020   66.0800 C.3    81  LEU81       0.0022
     11  CD1       12.8130    2.6440   64.8450 C.3    81  LEU81       0.0001
     12  CD2       11.2680    3.2500   66.7030 C.3    81  LEU81       0.0001
     13  N         16.9280    2.4480   67.3270 N.am   82  LEU82      -0.1963
     14  CA        18.1600    2.6530   68.0700 C.3    82  LEU82       0.1728
     15  C         18.5490    4.1210   68.0710 C.2    82  LEU82       0.2616
     16  O         19.0920    4.6310   69.0580 O.2    82  LEU82      -0.2715
     17  CB        19.3090    1.8540   67.4490 C.3    82  LEU82       0.0311
     18  CG        19.1080    0.3520   67.2590 C.3    82  LEU82       0.0022
     19  CD1       20.3580   -0.2420   66.6220 C.3    82  LEU82       0.0001
     20  CD2       18.8290   -0.2850   68.5980 C.3    82  LEU82       0.0001
     21  N         18.2860    4.7830   66.9530 N.am   83  ALA83      -0.1963
     22  CA        18.6460    6.1850   66.7910 C.3    83  ALA83       0.1728
     23  C         18.0710    6.6950   65.4770 C.2    83  ALA83       0.2616
     24  O         17.5590    5.9180   64.6690 O.2    83  ALA83      -0.2715
     25  CB        20.1780    6.3160   66.7710 C.3    83  ALA83       0.0334
     26  N         18.0830    8.0080   65.3040 N.am   84  HIS84      -0.1973
     27  CA        17.6110    8.6000   64.0650 C.3    84  HIS84       0.1656
     28  C         18.3290    9.9230   63.8740 C.2    84  HIS84       0.2291
     29  O         18.8000   10.5250   64.8510 O.2    84  HIS84      -0.2864
     30  CB        16.0740    8.7500   63.9940 C.3    84  HIS84       0.0771
     31  CG        15.4570    9.5300   65.1190 C.ar   84  HIS84       0.0820
     32  ND1       14.2510    9.2050   65.6980 N.ar   84  HIS84      -0.2267
     33  CD2       15.8640   10.6640   65.7460 C.ar   84  HIS84       0.1154
     34  CE1       13.9690   10.1200   66.6270 C.ar   84  HIS84       0.1986
     35  NE2       14.9180   11.0350   66.7020 N.ar   84  HIS84      -0.2212
     36  N         29.6510    2.3870   65.5440 N.3   115  LEU115     -0.1231
     37  CA        28.9590    1.8790   64.3660 C.3   115  LEU115      0.1693
     38  C         27.6240    2.5790   64.1200 C.2   115  LEU115      0.2591
     39  O         27.3500    3.0390   63.0070 O.2   115  LEU115     -0.2718
     40  CB        28.7450    0.3690   64.4740 C.3   115  LEU115      0.0284
     41  CG        30.0190   -0.4700   64.3490 C.3   115  LEU115      0.0019
     42  CD1       29.7010   -1.9620   64.5210 C.3   115  LEU115      0.0001
     43  CD2       30.6670   -0.1990   62.9950 C.3   115  LEU115      0.0001
     44  N         26.7900    2.6700   65.1520 N.am  116  VAL116     -0.1980
     45  CA        25.4920    3.3250   64.9860 C.3   116  VAL116      0.1595
     46  C         25.6570    4.8080   64.6150 C.2   116  VAL116      0.2287
     47  O         25.0160    5.2850   63.6810 O.2   116  VAL116     -0.2864
     48  CB        24.5710    3.1280   66.2310 C.3   116  VAL116      0.0276
     49  CG1       23.2830    3.9380   66.0930 C.3   116  VAL116      0.0022
     50  CG2       24.1980    1.6580   66.3500 C.3   116  VAL116      0.0022
     51  N         26.6570    5.3160   60.9660 N.3   119  HIS119     -0.1226
     52  CA        25.4800    5.1430   60.1130 C.3   119  HIS119      0.1752
     53  C         24.6030    6.4000   60.1710 C.2   119  HIS119      0.2595
     54  O         24.1820    6.9190   59.1320 O.2   119  HIS119     -0.2718
     55  CB        24.6670    3.9120   60.5590 C.3   119  HIS119      0.0759
     56  CG        23.3470    3.7570   59.8550 C.ar  119  HIS119      0.0818
     57  ND1       23.1250    2.8960   58.8020 N.ar  119  HIS119     -0.2268
     58  CD2       22.1500    4.3460   60.0960 C.ar  119  HIS119      0.1154
     59  CE1       21.8300    2.9880   58.4530 C.ar  119  HIS119      0.1986
     60  NE2       21.1830    3.8600   59.2090 N.ar  119  HIS119     -0.2212
     61  N         24.3370    6.8860   61.3860 N.am  120  GLU120     -0.1979
     62  CA        23.5130    8.0840   61.5810 C.3   120  GLU120      0.1602
     63  C         24.1280    9.3290   60.9490 C.2   120  GLU120      0.2287
     64  O         23.4180   10.1380   60.3520 O.2   120  GLU120     -0.2864
     65  CB        23.2480    8.3390   63.0710 C.3   120  GLU120      0.0415
     66  CG        22.4080    7.2710   63.7640 C.3   120  GLU120      0.1163
     67  CD        21.1320    6.9360   63.0120 C.2   120  GLU120      0.3649
     68  OE1       20.4390    7.8540   62.5170 O.co2 120  GLU120     -0.2457
     69  OE2       20.8040    5.7390   62.9100 O.co2 120  GLU120     -0.2457
     70  N         23.4380    9.8000   57.4380 N.3   123  HIS123     -0.1241
     71  CA        22.1300   10.4310   57.2550 C.3   123  HIS123      0.1621
     72  C         22.2780   11.9500   57.3870 C.2   123  HIS123      0.2264
     73  O         21.7340   12.7010   56.5800 O.2   123  HIS123     -0.2867
     74  CB        21.1200    9.9390   58.3030 C.3   123  HIS123      0.0745
     75  CG        20.5830    8.5630   58.0490 C.ar  123  HIS123      0.0817
     76  ND1       20.1650    8.1050   56.8160 N.ar  123  HIS123     -0.2268
     77  CD2       20.3580    7.5400   58.9130 C.ar  123  HIS123      0.1154
     78  CE1       19.7010    6.8540   56.9650 C.ar  123  HIS123      0.1986
     79  NE2       19.7960    6.4560   58.2200 N.ar  123  HIS123     -0.2212
     80  N         19.2360    5.0710   53.1090 N.3   129  HIS129     -0.1241
     81  CA        19.6110    3.6740   53.2640 C.3   129  HIS129      0.1621
     82  C         19.9960    2.9920   51.9570 C.2   129  HIS129      0.2264
     83  O         19.4240    3.2600   50.9040 O.2   129  HIS129     -0.2867
     84  CB        18.4970    2.8970   53.9650 C.3   129  HIS129      0.0745
     85  CG        18.3040    3.2900   55.3960 C.ar  129  HIS129      0.0817
     86  ND1       17.0780    3.5040   55.9820 N.ar  129  HIS129     -0.2268
     87  CD2       19.2190    3.5470   56.3620 C.ar  129  HIS129      0.1154
     88  CE1       17.2850    3.8780   57.2560 C.ar  129  HIS129      0.1986
     89  NE2       18.5750    3.9220   57.5410 N.ar  129  HIS129     -0.2212
     90  N         23.3730   -5.2200   51.5840 N.3   133  PRO133     -0.2102
     91  CA        23.4760   -5.7280   52.9550 C.3   133  PRO133      0.1504
     92  C         24.8620   -5.5720   53.5750 C.2   133  PRO133      0.2576
     93  O         25.0310   -5.7450   54.7780 O.2   133  PRO133     -0.2718
     94  CB        23.0790   -7.1970   52.8040 C.3   133  PRO133      0.0282
     95  CG        23.5380   -7.5310   51.4340 C.3   133  PRO133      0.0208
     96  CD        23.0840   -6.3220   50.6480 C.3   133  PRO133      0.0893
     97  N         25.8480   -5.2510   52.7480 N.am  134  GLY134     -0.1943
     98  CA        27.2000   -5.0740   53.2350 C.3   134  GLY134      0.2014
     99  C         27.5860   -3.6300   53.4790 C.2   134  GLY134      0.2639
    100  O         28.6870   -3.3660   53.9530 O.2   134  GLY134     -0.2714
    101  N         26.7070   -2.6920   53.1440 N.am  135  ALA135     -0.1963
    102  CA        27.0050   -1.2700   53.3420 C.3   135  ALA135      0.1728
    103  C         26.7150   -0.8130   54.7690 C.2   135  ALA135      0.2616
    104  O         25.8610   -1.3810   55.4540 O.2   135  ALA135     -0.2715
    105  CB        26.2090   -0.4210   52.3600 C.3   135  ALA135      0.0334
    106  N         27.4310    0.2140   55.2150 N.am  136  LEU136     -0.1977
    107  CA        27.2270    0.7790   56.5430 C.3   136  LEU136      0.1596
    108  C         25.8410    1.4280   56.5800 C.2   136  LEU136      0.2287
    109  O         25.2130    1.5020   57.6400 O.2   136  LEU136     -0.2864
    110  CB        28.3060    1.8280   56.8640 C.3   136  LEU136      0.0297
    111  CG        28.1690    2.6170   58.1840 C.3   136  LEU136      0.0022
    112  CD1       28.4750    1.7350   59.3920 C.3   136  LEU136      0.0001
    113  CD2       29.1090    3.8220   58.1790 C.3   136  LEU136      0.0001
    114  N         23.1900    0.2480   55.3550 N.3   138  PHE138     -0.1228
    115  CA        22.1470   -0.7710   55.3560 C.3   138  PHE138      0.1721
    116  C         21.4960   -0.6100   56.7420 C.2   138  PHE138      0.2437
    117  O         22.1930   -0.5710   57.7570 O.2   138  PHE138     -0.2733
    118  CB        22.7500   -2.1640   55.1870 C.3   138  PHE138      0.0547
    119  CG        21.7380   -3.2080   54.8430 C.ar  138  PHE138     -0.0202
    120  CD1       21.0170   -3.1260   53.6580 C.ar  138  PHE138     -0.0042
    121  CD2       21.4890   -4.2610   55.7070 C.ar  138  PHE138     -0.0042
    122  CE1       20.0600   -4.0770   53.3360 C.ar  138  PHE138     -0.0003
    123  CE2       20.5300   -5.2230   55.3940 C.ar  138  PHE138     -0.0003
    124  CZ        19.8150   -5.1310   54.2090 C.ar  138  PHE138     -0.0000
    125  N         20.1570   -0.5280   56.8020 N.am  139  PRO139     -0.2718
    126  CA        19.4000   -0.3510   58.0480 C.3   139  PRO139      0.1535
    127  C         19.3660   -1.4320   59.1420 C.2   139  PRO139      0.2598
    128  O         18.4640   -1.4120   59.9930 O.2   139  PRO139     -0.2715
    129  CB        17.9990   -0.0180   57.5370 C.3   139  PRO139      0.0310
    130  CG        17.8910   -0.8770   56.3170 C.3   139  PRO139      0.0237
    131  CD        19.2400   -0.6580   55.6510 C.3   139  PRO139      0.0939
    132  N         20.3220   -2.3610   59.1480 N.am  140  ILE140     -0.1964
    133  CA        20.3390   -3.3880   60.1890 C.3   140  ILE140      0.1727
    134  C         21.7140   -3.4330   60.8450 C.2   140  ILE140      0.2616
    135  O         22.7420   -3.3720   60.1690 O.2   140  ILE140     -0.2715
    136  CB        19.9200   -4.8060   59.6740 C.3   140  ILE140      0.0290
    137  CG1       20.9660   -5.3830   58.7260 C.3   140  ILE140      0.0022
    138  CG2       18.5520   -4.7490   58.9960 C.3   140  ILE140      0.0023
    139  CD1       20.6410   -6.7980   58.2390 C.3   140  ILE140      0.0001
    140  N         21.7220   -3.4780   62.1690 N.am  141  TYR141     -0.1960
    141  CA        22.9580   -3.5140   62.9350 C.3   141  TYR141      0.1771
    142  C         23.7130   -4.8410   62.8250 C.2   141  TYR141      0.2620
    143  O         23.1380   -5.9070   63.0240 O.2   141  TYR141     -0.2715
    144  CB        22.6700   -3.2120   64.4090 C.3   141  TYR141      0.0574
    145  CG        23.8800   -3.3140   65.3030 C.ar  141  TYR141     -0.0198
    146  CD1       24.7220   -2.2240   65.4900 C.ar  141  TYR141     -0.0009
    147  CD2       24.1760   -4.4960   65.9830 C.ar  141  TYR141     -0.0009
    148  CE1       25.8290   -2.3020   66.3290 C.ar  141  TYR141      0.0417
    149  CE2       25.2840   -4.5850   66.8350 C.ar  141  TYR141      0.0417
    150  CZ        26.1040   -3.4780   67.0050 C.ar  141  TYR141      0.1957
    151  OH        27.1660   -3.5240   67.8700 O.3   141  TYR141     -0.2866
    152  N         25.0160   -4.7390   62.5820 N.am  142  THR142     -0.1951
    153  CA        25.9130   -5.8870   62.4820 C.3   142  THR142      0.1897
    154  C         27.2280   -5.4520   63.1310 C.2   142  THR142      0.2313
    155  O         27.5950   -4.2780   63.0460 O.2   142  THR142     -0.2863
    156  CB        26.1810   -6.2840   60.9970 C.3   142  THR142      0.1794
    157  OG1       25.0040   -6.8810   60.4370 O.3   142  THR142     -0.2208
    158  CG2       27.3350   -7.2790   60.8970 C.3   142  THR142      0.0378
    159  N         38.0570   -0.7480   61.1450 N.3   149  PHE149     -0.1241
    160  CA        36.8570   -0.5570   60.3500 C.3   149  PHE149      0.1605
    161  C         37.2480   -0.0420   58.9710 C.2   149  PHE149      0.2264
    162  O         38.1440    0.7960   58.8600 O.2   149  PHE149     -0.2867
    163  CB        35.9370    0.4600   61.0340 C.3   149  PHE149      0.0534
    164  CG        34.7050    0.7930   60.2440 C.ar  149  PHE149     -0.0203
    165  CD1       34.6620    1.9340   59.4430 C.ar  149  PHE149     -0.0042
    166  CD2       33.5890   -0.0380   60.2860 C.ar  149  PHE149     -0.0042
    167  CE1       33.5250    2.2430   58.6930 C.ar  149  PHE149     -0.0003
    168  CE2       32.4440    0.2620   59.5390 C.ar  149  PHE149     -0.0003
    169  CZ        32.4150    1.4090   58.7390 C.ar  149  PHE149     -0.0000
@<TRIPOS>BOND
     1    96    95    1
     2    96    90    1
     3    83    82    2
     4    95    94    1
     5    90    91    1
     6    82    81    1
     7   105   102    1
     8    97    98    1
     9    97    92   am
    10    94    91    1
    11    91    92    1
    12    80    81    1
    13   101   102    1
    14   101    99   am
    15    98    99    1
    16    81    84    1
    17   122   120   ar
    18   122   124   ar
    19   102   103    1
    20    99   100    2
    21    92    93    2
    22   120   119   ar
    23    84    85    1
    24   124   123   ar
    25   103   106   am
    26   103   104    2
    27   119   118    1
    28   119   121   ar
    29   118   115    1
    30   106   107    1
    31   114   115    1
    32   115   116    1
    33   123   121   ar
    34    85    86   ar
    35    85    87   ar
    36   131   130    1
    37   131   125    1
    38    86    88   ar
    39   130   129    1
    40    87    89   ar
    41   107   108    1
    42   107   110    1
    43   108   109    2
    44    73    72    2
    45   116   125   am
    46   116   117    2
    47   125   126    1
    48    76    78   ar
    49    76    75   ar
    50   110   111    1
    51    78    79   ar
    52    71    72    1
    53    71    70    1
    54    71    74    1
    55    88    89   ar
    56   129   126    1
    57   126   127    1
    58    75    74    1
    59    75    77   ar
    60   113   111    1
    61   111   112    1
    62    79    77   ar
    63   139   137    1
    64    59    57   ar
    65    59    60   ar
    66   167   169   ar
    67   167   165   ar
    68   137   136    1
    69   169   168   ar
    70    57    56   ar
    71   162   161    2
    72   161   160    1
    73   138   136    1
    74    54    53    2
    75   127   132   am
    76   127   128    2
    77   132   133    1
    78    60    58   ar
    79   165   164   ar
    80   168   166   ar
    81   136   133    1
    82    56    58   ar
    83    56    55    1
    84    52    53    1
    85    52    55    1
    86    52    51    1
    87   135   134    2
    88    53    61   am
    89   133   134    1
    90   164   166   ar
    91   164   163    1
    92   160   163    1
    93   160   159    1
    94    64    63    2
    95   157   156    1
    96   134   140   am
    97   158   156    1
    98    63    62    1
    99   156   153    1
   100    61    62    1
   101    62    65    1
   102   140   141    1
   103   153   152    1
   104   153   154    1
   105    68    67   ar
   106   152   142   am
   107   142   141    1
   108   142   143    2
   109    69    67   ar
   110   141   144    1
   111    43    41    1
   112    39    38    2
   113    67    66    1
   114   155   154    2
   115    65    66    1
   116    47    46    2
   117    28    27    1
   118    28    29    2
   119    30    27    1
   120    30    31    1
   121    27    26    1
   122    38    37    1
   123    38    44   am
   124    41    40    1
   125    41    42    1
   126    37    40    1
   127    37    36    1
   128   144   145    1
   129    46    45    1
   130    24    23    2
   131    11    10    1
   132    45    44    1
   133    45    48    1
   134    31    32   ar
   135    31    33   ar
   136   145   146   ar
   137   145   147   ar
   138    26    23   am
   139    23    22    1
   140   146   148   ar
   141    32    34   ar
   142    33    35   ar
   143   147   149   ar
   144    10    12    1
   145    10     9    1
   146    49    48    1
   147    48    50    1
   148   148   150   ar
   149    19    18    1
   150    34    35   ar
   151    25    22    1
   152    22    21    1
   153   149   150   ar
   154    21    15   am
   155   150   151    1
   156     6     9    1
   157     6     5    1
   158     6     7    1
   159     4     3    2
   160    18    17    1
   161    18    20    1
   162    13     7   am
   163    13    14    1
   164    17    14    1
   165     5     3   am
   166     3     2    1
   167     7     8    2
   168     2     1    1
   169    14    15    1
   170    15    16    2
