@<TRIPOS>MOLECULE
tmp/8a3hA00.pdb
 160 156 0 0 0
SMALL
GASTEIGER

@<TRIPOS>ATOM
      1  N         61.8930   49.5310   28.4240 N.3    32  HIS32      -0.1241
      2  CA        61.1040   49.4240   29.6580 C.3    32  HIS32       0.1621
      3  C         59.6590   49.2160   29.2360 C.2    32  HIS32       0.2264
      4  O         59.3570   48.8600   28.0830 O.2    32  HIS32      -0.2867
      5  CB        61.4290   50.6700   30.5290 C.3    32  HIS32       0.0745
      6  CG        60.9900   50.6400   31.9860 C.ar   32  HIS32       0.0817
      7  ND1       59.6850   50.7100   32.4020 N.ar   32  HIS32      -0.2268
      8  CD2       61.7990   50.6200   33.0790 C.ar   32  HIS32       0.1154
      9  CE1       59.7540   50.7530   33.7520 C.ar   32  HIS32       0.1986
     10  NE2       61.0120   50.7220   34.1800 N.ar   32  HIS32      -0.2212
     11  N         54.8240   53.2610   29.3890 N.3    36  TRP36      -0.1241
     12  CA        55.4480   54.3060   30.1930 C.3    36  TRP36       0.1605
     13  C         56.5570   55.0460   29.4430 C.2    36  TRP36       0.2264
     14  O         56.7250   56.2690   29.6160 O.2    36  TRP36      -0.2867
     15  CB        56.0680   53.7340   31.4870 C.3    36  TRP36       0.0550
     16  CG        55.0600   53.1390   32.4180 C.ar   36  TRP36       0.0003
     17  CD1       53.8600   53.6630   32.8470 C.ar   36  TRP36       0.0946
     18  CD2       55.2130   51.8910   33.1330 C.ar   36  TRP36       0.0152
     19  NE1       53.2680   52.8180   33.7530 N.ar   36  TRP36      -0.2442
     20  CE2       54.0880   51.7370   33.9680 C.ar   36  TRP36       0.0810
     21  CE3       56.2150   50.9110   33.1640 C.ar   36  TRP36       0.0012
     22  CZ2       53.9250   50.6450   34.8170 C.ar   36  TRP36       0.0191
     23  CZ3       56.0730   49.8200   34.0190 C.ar   36  TRP36       0.0001
     24  CH2       54.9240   49.6910   34.8140 C.ar   36  TRP36       0.0015
     25  N         54.0990   45.2270   28.6080 N.3    63  TYR63      -0.1241
     26  CA        53.3630   44.8360   29.8060 C.3    63  TYR63       0.1605
     27  C         51.9210   44.5600   29.4020 C.2    63  TYR63       0.2264
     28  O         51.2890   45.2910   28.6100 O.2    63  TYR63      -0.2867
     29  CB        53.3490   45.9400   30.8700 C.3    63  TYR63       0.0534
     30  CG        54.5550   46.0210   31.7650 C.ar   63  TYR63      -0.0201
     31  CD1       55.7950   46.4740   31.3150 C.ar   63  TYR63      -0.0009
     32  CD2       54.4630   45.7020   33.1270 C.ar   63  TYR63      -0.0009
     33  CE1       56.8790   46.6440   32.1670 C.ar   63  TYR63       0.0417
     34  CE2       55.5310   45.8430   33.9820 C.ar   63  TYR63       0.0417
     35  CZ        56.7200   46.3470   33.5280 C.ar   63  TYR63       0.1957
     36  OH        57.8190   46.5790   34.3330 O.3    63  TYR63      -0.2866
     37  N         49.3940   46.5770   34.6870 N.3    66  SER66      -0.1217
     38  CA        50.1460   47.7880   35.0530 C.3    66  SER66       0.1889
     39  C         49.9470   48.9140   34.0320 C.2    66  SER66       0.2288
     40  O         50.8680   49.6570   33.7360 O.2    66  SER66      -0.2866
     41  CB        51.6270   47.5010   35.2930 C.3    66  SER66       0.2089
     42  OG        51.8300   46.4830   36.2510 O.3    66  SER66      -0.2183
     43  N         54.5240   40.7880   28.2860 N.3    98  HIS98      -0.1241
     44  CA        55.2970   41.0270   29.5050 C.3    98  HIS98       0.1621
     45  C         54.4190   40.9220   30.7580 C.2    98  HIS98       0.2264
     46  O         54.0550   41.9260   31.4040 O.2    98  HIS98      -0.2867
     47  CB        56.0540   42.3600   29.3960 C.3    98  HIS98       0.0745
     48  CG        57.1400   42.5450   30.4110 C.ar   98  HIS98       0.0817
     49  ND1       58.4450   42.1850   30.1400 N.ar   98  HIS98      -0.2268
     50  CD2       57.0950   43.1170   31.6640 C.ar   98  HIS98       0.1154
     51  CE1       59.1740   42.5420   31.1910 C.ar   98  HIS98       0.1986
     52  NE2       58.4000   43.0980   32.1410 N.ar   98  HIS98      -0.2212
     53  N         53.7070   39.9980   34.6760 N.3   100  LEU100     -0.1245
     54  CA        54.4850   40.2150   35.9060 C.3   100  LEU100      0.1561
     55  C         53.5590   40.1230   37.0980 C.2   100  LEU100      0.2260
     56  O         53.4110   39.0680   37.7360 O.2   100  LEU100     -0.2867
     57  CB        55.2530   41.5240   35.8380 C.3   100  LEU100      0.0270
     58  CG        56.2630   41.7230   36.9850 C.3   100  LEU100      0.0019
     59  CD1       57.3760   40.6810   36.9340 C.3   100  LEU100      0.0001
     60  CD2       56.8410   43.1250   36.9340 C.3   100  LEU100      0.0001
     61  N         56.6720   36.7280   29.7620 N.3   135  ASN135     -0.1225
     62  CA        57.8960   37.2070   30.3820 C.3   135  ASN135      0.1785
     63  C         58.3300   36.4050   31.6280 C.2   135  ASN135      0.2597
     64  O         59.3820   35.7470   31.6330 O.2   135  ASN135     -0.2718
     65  CB        57.7130   38.7080   30.7540 C.3   135  ASN135      0.1169
     66  CG        58.8260   39.2370   31.6390 C.2   135  ASN135      0.2627
     67  OD1       59.9990   39.0580   31.3600 O.2   135  ASN135     -0.2716
     68  ND2       58.4400   39.9010   32.7480 N.am  135  ASN135     -0.0877
     69  N         57.5520   36.5500   32.7110 N.am  136  GLU136     -0.1979
     70  CA        57.9350   36.0110   34.0490 C.3   136  GLU136      0.1602
     71  C         56.7300   35.4600   34.8000 C.2   136  GLU136      0.2287
     72  O         56.2090   36.1140   35.7130 O.2   136  GLU136     -0.2864
     73  CB        58.6440   37.0860   34.8830 C.3   136  GLU136      0.0415
     74  CG        60.0830   37.2910   34.4320 C.3   136  GLU136      0.1163
     75  CD        60.9020   38.1690   35.3490 C.2   136  GLU136      0.3649
     76  OE1       60.3430   38.6710   36.3580 O.co2 136  GLU136     -0.2457
     77  OE2       62.1200   38.3730   35.0820 O.co2 136  GLU136     -0.2457
     78  N         59.8090   33.7060   38.4200 N.3   175  TRP175     -0.1241
     79  CA        60.3300   34.8880   37.7040 C.3   175  TRP175      0.1605
     80  C         61.3410   34.4770   36.6400 C.2   175  TRP175      0.2264
     81  O         62.4170   35.0970   36.4800 O.2   175  TRP175     -0.2867
     82  CB        60.8340   36.0280   38.6010 C.3   175  TRP175      0.0550
     83  CG        59.7750   36.6700   39.4390 C.ar  175  TRP175      0.0003
     84  CD1       58.8910   37.7680   39.1210 C.ar  175  TRP175      0.0946
     85  CD2       59.4370   36.3700   40.7870 C.ar  175  TRP175      0.0152
     86  NE1       58.1040   38.0430   40.1810 N.ar  175  TRP175     -0.2442
     87  CE2       58.4700   37.2210   41.2750 C.ar  175  TRP175      0.0810
     88  CE3       59.9820   35.4630   41.6730 C.ar  175  TRP175      0.0012
     89  CZ2       57.8900   37.2490   42.5050 C.ar  175  TRP175      0.0191
     90  CZ3       59.4420   35.4120   42.9910 C.ar  175  TRP175      0.0001
     91  CH2       58.4460   36.2870   43.3740 C.ar  175  TRP175      0.0015
     92  N         69.4940   39.2950   37.8350 N.3   199  TYR199     -0.1241
     93  CA        69.8110   40.6640   38.2340 C.3   199  TYR199      0.1605
     94  C         71.0770   40.5530   39.0800 C.2   199  TYR199      0.2264
     95  O         71.1740   39.7320   40.0140 O.2   199  TYR199     -0.2867
     96  CB        68.6210   41.3480   38.9460 C.3   199  TYR199      0.0534
     97  CG        67.6030   41.8080   37.9080 C.ar  199  TYR199     -0.0201
     98  CD1       66.7400   40.8920   37.2810 C.ar  199  TYR199     -0.0009
     99  CD2       67.5720   43.1290   37.5000 C.ar  199  TYR199     -0.0009
    100  CE1       65.9080   41.2720   36.2290 C.ar  199  TYR199      0.0417
    101  CE2       66.7180   43.5270   36.4500 C.ar  199  TYR199      0.0417
    102  CZ        65.9170   42.6000   35.8170 C.ar  199  TYR199      0.1957
    103  OH        65.1150   43.0530   34.7910 O.3   199  TYR199     -0.2866
    104  N         66.0570   38.7730   29.5790 N.3   225  GLU225     -0.1245
    105  CA        66.0670   39.9750   30.4300 C.3   225  GLU225      0.1567
    106  C         67.1310   39.7850   31.5190 C.2   225  GLU225      0.2260
    107  O         67.1260   38.7750   32.2450 O.2   225  GLU225     -0.2867
    108  CB        64.6970   40.1910   31.0750 C.3   225  GLU225      0.0388
    109  CG        64.5870   41.5540   31.7740 C.3   225  GLU225      0.1160
    110  CD        63.2220   41.6840   32.4080 C.2   225  GLU225      0.3649
    111  OE1       62.2170   41.7030   31.6670 O.co2 225  GLU225     -0.2457
    112  OE2       63.1230   41.7240   33.6670 O.co2 225  GLU225     -0.2457
    113  N         67.2590   43.0130   42.0900 N.3   231  ALA231     -0.1231
    114  CA        66.0560   42.4840   41.4600 C.3   231  ALA231      0.1694
    115  C         64.9170   43.4640   41.4150 C.2   231  ALA231      0.2593
    116  O         63.9690   43.2680   40.6150 O.2   231  ALA231     -0.2718
    117  CB        65.6020   41.2030   42.1740 C.3   231  ALA231      0.0304
    118  N         64.9360   44.5330   42.2190 N.am  232  THR232     -0.1939
    119  CA        63.9170   45.5870   42.1540 C.3   232  THR232      0.2028
    120  C         64.0690   46.5010   40.9350 C.2   232  THR232      0.2642
    121  O         63.2190   47.3710   40.7210 O.2   232  THR232     -0.2714
    122  CB        64.1150   46.5070   43.4110 C.3   232  THR232      0.1808
    123  OG1       65.4610   46.9540   43.3040 O.3   232  THR232     -0.2208
    124  CG2       63.8430   45.7550   44.6890 C.3   232  THR232      0.0379
    125  N         65.1570   46.3640   40.1740 N.am  233  GLY233     -0.1954
    126  CA        65.4820   47.3270   39.1160 C.3   233  GLY233      0.1869
    127  C         66.3060   48.5390   39.6030 C.2   233  GLY233      0.2309
    128  O         66.6910   49.3780   38.7860 O.2   233  GLY233     -0.2863
    129  N         67.8910   44.9820   30.5980 N.3   259  TRP259     -0.1241
    130  CA        66.8420   45.8270   31.1520 C.3   259  TRP259      0.1605
    131  C         67.4740   47.0700   31.7670 C.2   259  TRP259      0.2264
    132  O         68.2720   46.8960   32.7180 O.2   259  TRP259     -0.2867
    133  CB        66.1160   45.0350   32.2640 C.3   259  TRP259      0.0550
    134  CG        64.8890   45.7270   32.7860 C.ar  259  TRP259      0.0003
    135  CD1       64.7790   46.5410   33.8730 C.ar  259  TRP259      0.0946
    136  CD2       63.5790   45.6740   32.1920 C.ar  259  TRP259      0.0152
    137  NE1       63.4940   47.0000   34.0200 N.ar  259  TRP259     -0.2442
    138  CE2       62.7090   46.4740   33.0050 C.ar  259  TRP259      0.0810
    139  CE3       63.0440   45.0330   31.0600 C.ar  259  TRP259      0.0012
    140  CZ2       61.3690   46.6450   32.6850 C.ar  259  TRP259      0.0191
    141  CZ3       61.7240   45.2020   30.7650 C.ar  259  TRP259      0.0001
    142  CH2       60.8690   45.9950   31.5660 C.ar  259  TRP259      0.0015
    143  N         64.3970   56.5750   33.4730 N.3   264  LYS264     -0.1245
    144  CA        63.8400   56.4970   34.8250 C.3   264  LYS264      0.1561
    145  C         64.9690   56.4950   35.8510 C.2   264  LYS264      0.2260
    146  O         66.0580   55.9220   35.6270 O.2   264  LYS264     -0.2867
    147  CB        63.0510   55.1960   34.9720 C.3   264  LYS264      0.0271
    148  CG        62.3010   55.1070   36.3210 C.3   264  LYS264      0.0035
    149  CD        61.2910   53.9630   36.3720 C.3   264  LYS264      0.0206
    150  CE        60.6070   53.8980   37.7620 C.3   264  LYS264      0.1093
    151  NZ        59.4240   53.0000   37.8070 N.3   264  LYS264     -0.1314
    152  N         66.3160   54.8880   38.2590 N.3   266  GLU266     -0.1245
    153  CA        66.5650   53.5940   38.9000 C.3   266  GLU266      0.1567
    154  C         67.8720   53.1010   38.3000 C.2   266  GLU266      0.2260
    155  O         68.1800   53.3640   37.1240 O.2   266  GLU266     -0.2867
    156  CB        65.4260   52.5900   38.7570 C.3   266  GLU266      0.0388
    157  CG        65.1180   52.2130   37.3000 C.3   266  GLU266      0.1160
    158  CD        63.8310   51.4430   37.1320 C.2   266  GLU266      0.3649
    159  OE1       62.9920   51.3910   38.0880 O.co2 266  GLU266     -0.2457
    160  OE2       63.5930   50.8730   36.0180 O.co2 266  GLU266     -0.2457
@<TRIPOS>BOND
     1     4     3    2
     2    43    44    1
     3     1     2    1
     4    25    26    1
     5    28    27    2
     6     3     2    1
     7    11    12    1
     8    47    44    1
     9    47    48    1
    10    27    26    1
    11    13    14    2
    12    13    12    1
    13    44    45    1
    14   104   105    1
    15     2     5    1
    16    61    62    1
    17    26    29    1
    18    49    48   ar
    19    49    51   ar
    20    12    15    1
    21    62    65    1
    22    62    63    1
    23    48    50   ar
    24   105   108    1
    25   105   106    1
    26     5     6    1
    27   129   130    1
    28    65    66    1
    29    45    46    2
    30   141   139   ar
    31   141   142   ar
    32    29    30    1
    33   139   136   ar
    34   108   109    1
    35   130   131    1
    36   130   133    1
    37    51    52   ar
    38    31    30   ar
    39    31    33   ar
    40    67    66    2
    41    15    16    1
    42   106   107    2
    43   142   140   ar
    44    63    64    2
    45    63    69   am
    46    66    68   am
    47    50    52   ar
    48   111   110   ar
    49    30    32   ar
    50   131   132    2
    51   109   110    1
    52     6     7   ar
    53     6     8   ar
    54    33    35   ar
    55   136   134   ar
    56   136   138   ar
    57   133   134    1
    58     7     9   ar
    59   110   112   ar
    60    16    17   ar
    61    16    18   ar
    62   140   138   ar
    63    69    70    1
    64   134   135   ar
    65    17    19   ar
    66   138   137   ar
    67     8    10   ar
    68    32    34   ar
    69    18    21   ar
    70    18    20   ar
    71    21    23   ar
    72   143   144    1
    73    35    34   ar
    74    35    36    1
    75    40    39    2
    76     9    10   ar
    77    19    20   ar
    78   135   137   ar
    79    20    22   ar
    80    23    24   ar
    81    39    38    1
    82    70    71    1
    83    70    73    1
    84    74    73    1
    85    74    75    1
    86    53    54    1
    87    37    38    1
    88   103   102    1
    89    71    72    2
    90    24    22   ar
    91   144   147    1
    92   144   145    1
    93   147   148    1
    94    38    41    1
    95    77    75   ar
    96    41    42    1
    97    75    76   ar
    98   146   145    2
    99   102   100   ar
   100   102   101   ar
   101    57    54    1
   102    57    58    1
   103    54    55    1
   104   160   158   ar
   105   100    98   ar
   106   148   149    1
   107   149   150    1
   108   101    99   ar
   109    81    80    2
   110    80    79    1
   111    60    58    1
   112    59    58    1
   113    55    56    2
   114   155   154    2
   115   158   157    1
   116   158   159   ar
   117    98    97   ar
   118   157   156    1
   119    99    97   ar
   120    79    78    1
   121    79    82    1
   122   150   151    1
   123    92    93    1
   124    97    96    1
   125    93    96    1
   126    93    94    1
   127   152   153    1
   128   154   153    1
   129    82    83    1
   130   156   153    1
   131   128   127    2
   132    94    95    2
   133   126   127    1
   134   126   125    1
   135    84    83   ar
   136    84    86   ar
   137    83    85   ar
   138   125   120   am
   139    86    87   ar
   140   116   115    2
   141   121   120    2
   142    85    87   ar
   143    85    88   ar
   144   120   119    1
   145    87    89   ar
   146   115   114    1
   147   115   118   am
   148   114   113    1
   149   114   117    1
   150    88    90   ar
   151   119   118    1
   152   119   122    1
   153    89    91   ar
   154    90    91   ar
   155   123   122    1
   156   122   124    1
