@<TRIPOS>MOLECULE
tmp/8acnA00.pdb
 131 123 0 0 0
SMALL
GASTEIGER

@<TRIPOS>ATOM
      1  N         39.7730   27.2120   75.9000 N.3    71  GLN71      -0.1245
      2  CA        40.6250   27.2790   74.7040 C.3    71  GLN71       0.1566
      3  C         41.8470   28.1460   75.0450 C.2    71  GLN71       0.2260
      4  O         41.8240   28.8260   76.0780 O.2    71  GLN71      -0.2867
      5  CB        39.7680   27.8050   73.4970 C.3    71  GLN71       0.0367
      6  CG        38.6770   28.8270   73.7460 C.3    71  GLN71       0.0905
      7  CD        39.2620   30.2290   73.7970 C.2    71  GLN71       0.2608
      8  OE1       40.4810   30.4270   73.9640 O.2    71  GLN71      -0.2717
      9  NE2       38.4180   31.2310   73.6260 N.am   71  GLN71      -0.0878
     10  N         43.1280   31.1240   74.2470 N.3    73  ALA73      -0.1231
     11  CA        43.0470   32.5460   74.4460 C.3    73  ALA73       0.1694
     12  C         42.3750   32.9140   75.7620 C.2    73  ALA73       0.2592
     13  O         42.4660   34.0680   76.2060 O.2    73  ALA73      -0.2718
     14  CB        42.2560   33.1980   73.3260 C.3    73  ALA73       0.0304
     15  N         41.5920   32.0380   76.3990 N.am   74  THR74      -0.1953
     16  CA        40.9530   32.3420   77.6830 C.3    74  THR74       0.1897
     17  C         41.5230   31.4730   78.7830 C.2    74  THR74       0.2313
     18  O         41.4730   31.8640   79.9590 O.2    74  THR74      -0.2863
     19  CB        39.3930   32.1480   77.6000 C.3    74  THR74       0.1794
     20  OG1       39.1550   30.8550   77.0400 O.3    74  THR74      -0.2208
     21  CG2       38.6920   33.2420   76.7780 C.3    74  THR74       0.0378
     22  N         43.3990   29.1310   69.0980 N.3   100  HIS100     -0.1241
     23  CA        43.2630   30.5630   68.8080 C.3   100  HIS100      0.1621
     24  C         44.5190   31.2890   68.3840 C.2   100  HIS100      0.2264
     25  O         44.4180   32.4410   67.9490 O.2   100  HIS100     -0.2867
     26  CB        42.6930   31.3290   70.0400 C.3   100  HIS100      0.0745
     27  CG        41.1920   31.2070   70.2850 C.ar  100  HIS100      0.0817
     28  ND1       40.4210   30.1330   70.4180 N.ar  100  HIS100     -0.2268
     29  CD2       40.3320   32.2870   70.2940 C.ar  100  HIS100      0.1154
     30  CE1       39.1640   30.5110   70.4940 C.ar  100  HIS100      0.1986
     31  NE2       39.1120   31.8240   70.4050 N.ar  100  HIS100     -0.2212
     32  N         34.1670   30.1190   76.5520 N.3   164  ASP164     -0.1225
     33  CA        34.0240   30.5350   75.1850 C.3   164  ASP164      0.1805
     34  C         32.5290   30.6300   74.9850 C.2   164  ASP164      0.2598
     35  O         31.7710   29.7430   75.3610 O.2   164  ASP164     -0.2718
     36  CB        34.6250   29.4660   74.2500 C.3   164  ASP164      0.1424
     37  CG        34.6770   29.9780   72.8400 C.2   164  ASP164      0.3668
     38  OD1       35.6670   30.6200   72.4940 O.co2 164  ASP164     -0.2456
     39  OD2       33.7390   29.8510   72.0260 O.co2 164  ASP164     -0.2456
     40  N         32.0360   31.6760   74.3570 N.am  165  SER165     -0.1938
     41  CA        30.6210   31.8700   74.1660 C.3   165  SER165      0.2055
     42  C         30.0400   30.9260   73.1350 C.2   165  SER165      0.2643
     43  O         28.8260   30.9610   72.9890 O.2   165  SER165     -0.2714
     44  CB        30.3480   33.3270   73.7330 C.3   165  SER165      0.2130
     45  OG        30.8930   33.6120   72.4620 O.3   165  SER165     -0.2179
     46  N         30.7930   30.1800   72.3100 N.am  166  HIS166     -0.1973
     47  CA        30.1770   29.2320   71.3880 C.3   166  HIS166      0.1656
     48  C         30.1450   27.8200   72.0050 C.2   166  HIS166      0.2291
     49  O         29.8670   26.8480   71.3050 O.2   166  HIS166     -0.2864
     50  CB        30.9240   29.2790   70.0120 C.3   166  HIS166      0.0771
     51  CG        30.5050   30.5580   69.2430 C.ar  166  HIS166      0.0820
     52  ND1       31.2190   31.6370   68.8170 N.ar  166  HIS166     -0.2267
     53  CD2       29.1800   30.7970   68.9310 C.ar  166  HIS166      0.1154
     54  CE1       30.3410   32.4730   68.2910 C.ar  166  HIS166      0.1986
     55  NE2       29.1420   31.9820   68.3780 N.ar  166  HIS166     -0.2212
     56  N         40.9110   28.6190   64.7930 N.3   420  CYS420     -0.1235
     57  CA        40.0470   29.7620   64.5560 C.3   420  CYS420      0.1677
     58  C         40.5290   30.6360   63.4090 C.2   420  CYS420      0.2270
     59  O         39.7370   30.9980   62.5330 O.2   420  CYS420     -0.2867
     60  CB        39.9530   30.5810   65.8300 C.3   420  CYS420      0.0956
     61  SG        39.4270   29.5640   67.2180 S.3   420  CYS420     -0.0801
     62  N         38.6630   33.8120   61.8010 N.3   423  CYS423     -0.1221
     63  CA        37.5050   34.1190   62.6060 C.3   423  CYS423      0.1808
     64  C         37.7980   35.0410   63.7880 C.2   423  CYS423      0.2601
     65  O         36.8860   35.8130   64.0670 O.2   423  CYS423     -0.2717
     66  CB        36.9050   32.7980   63.0440 C.3   423  CYS423      0.0970
     67  SG        35.2920   32.8980   63.8520 S.3   423  CYS423     -0.0800
     68  N         38.9290   35.0400   64.5130 N.am  424  ILE424     -0.1979
     69  CA        39.1440   36.0320   65.5900 C.3   424  ILE424      0.1595
     70  C         40.2380   37.0000   65.0900 C.2   424  ILE424      0.2287
     71  O         41.0330   37.5420   65.8710 O.2   424  ILE424     -0.2864
     72  CB        39.7010   35.5080   67.0440 C.3   424  ILE424      0.0276
     73  CG1       40.0200   34.0630   66.9330 C.3   424  ILE424      0.0022
     74  CG2       38.7640   35.8460   68.2340 C.3   424  ILE424      0.0022
     75  CD1       41.4700   33.8400   66.5330 C.3   424  ILE424      0.0001
     76  N         30.1090   35.8160   63.3730 N.3   446  ARG446     -0.1245
     77  CA        30.0800   37.2140   63.7740 C.3   446  ARG446      0.1563
     78  C         30.7620   37.9930   62.6640 C.2   446  ARG446      0.2260
     79  O         31.5800   37.4400   61.9090 O.2   446  ARG446     -0.2867
     80  CB        30.8530   37.4540   65.0620 C.3   446  ARG446      0.0307
     81  CG        30.1440   36.9480   66.2910 C.3   446  ARG446      0.0489
     82  CD        31.1110   36.7570   67.4350 C.3   446  ARG446      0.2205
     83  NE        30.3310   36.2610   68.5590 N.pl3 446  ARG446     -0.0865
     84  CZ        30.8510   35.6540   69.6260 C.cat 446  ARG446      0.5346
     85  NH1       32.1840   35.5360   69.8450 N.pl3 446  ARG446      0.1354
     86  NH2       29.9450   35.1720   70.4580 N.pl3 446  ARG446      0.1354
     87  N         36.7730   42.8630   63.1770 N.3   451  ARG451     -0.1245
     88  CA        37.1240   41.6190   63.8580 C.3   451  ARG451      0.1563
     89  C         37.8880   40.6430   62.9730 C.2   451  ARG451      0.2260
     90  O         38.6920   39.8870   63.5230 O.2   451  ARG451     -0.2867
     91  CB        35.8410   40.9320   64.3820 C.3   451  ARG451      0.0307
     92  CG        36.0060   39.5430   65.0220 C.3   451  ARG451      0.0489
     93  CD        34.6340   39.0450   65.4530 C.3   451  ARG451      0.2205
     94  NE        34.7180   37.5990   65.5370 N.pl3 451  ARG451     -0.0865
     95  CZ        34.8390   36.9540   66.6900 C.cat 451  ARG451      0.5346
     96  NH1       34.6900   37.5530   67.8810 N.pl3 451  ARG451      0.1354
     97  NH2       35.0430   35.6480   66.6450 N.pl3 451  ARG451      0.1354
     98  N         46.8690   37.8870   75.8410 N.3   579  ARG579     -0.1245
     99  CA        45.7970   37.4210   76.7070 C.3   579  ARG579      0.1563
    100  C         46.2380   36.8450   78.0640 C.2   579  ARG579      0.2260
    101  O         45.3920   36.6510   78.9560 O.2   579  ARG579     -0.2867
    102  CB        44.9630   36.3870   75.9770 C.3   579  ARG579      0.0307
    103  CG        44.1520   37.0450   74.8750 C.3   579  ARG579      0.0489
    104  CD        42.9840   38.0080   75.1860 C.3   579  ARG579      0.2205
    105  NE        41.9640   37.0770   75.1900 N.pl3 579  ARG579     -0.0865
    106  CZ        40.9100   36.9770   74.3910 C.cat 579  ARG579      0.5346
    107  NH1       40.3720   37.7690   73.4950 N.pl3 579  ARG579      0.1354
    108  NH2       40.2950   35.8390   74.6100 N.pl3 579  ARG579      0.1354
    109  N         31.6870   37.8070   72.5400 N.3   641  SER641     -0.1202
    110  CA        32.6050   36.9240   73.1870 C.3   641  SER641      0.2020
    111  C         32.5710   37.0980   74.6740 C.2   641  SER641      0.2619
    112  O         32.4150   38.2070   75.2050 O.2   641  SER641     -0.2717
    113  CB        33.9940   37.2160   72.5890 C.3   641  SER641      0.2103
    114  OG        35.1100   36.8940   73.4210 O.3   641  SER641     -0.2182
    115  N         32.8850   35.9670   75.3030 N.am  642  SER642     -0.1937
    116  CA        32.9490   35.8330   76.7460 C.3   642  SER642      0.2055
    117  C         34.2260   36.3790   77.3780 C.2   642  SER642      0.2642
    118  O         34.3310   36.3530   78.6060 O.2   642  SER642     -0.2714
    119  CB        32.8570   34.3780   77.1150 C.3   642  SER642      0.2130
    120  OG        33.9470   33.6730   76.5210 O.3   642  SER642     -0.2179
    121  N         35.2380   36.7940   76.5990 N.am  643  ARG643     -0.1977
    122  CA        36.5270   37.2310   77.1420 C.3   643  ARG643      0.1597
    123  C         36.3980   38.1410   78.3670 C.2   643  ARG643      0.2287
    124  O         35.9710   39.3070   78.3190 O.2   643  ARG643     -0.2864
    125  CB        37.3600   37.9550   76.0300 C.3   643  ARG643      0.0334
    126  CG        36.6780   39.2300   75.4430 C.3   643  ARG643      0.0492
    127  CD        37.3730   39.7960   74.2110 C.3   643  ARG643      0.2205
    128  NE        37.1580   38.9110   73.0740 N.pl3 643  ARG643     -0.0865
    129  CZ        37.1290   39.3400   71.8180 C.cat 643  ARG643      0.5346
    130  NH1       37.3560   40.6250   71.5640 N.pl3 643  ARG643      0.1354
    131  NH2       36.8400   38.4740   70.8350 N.pl3 643  ARG643      0.1354
@<TRIPOS>BOND
     1    62    63    1
     2    79    78    2
     3    59    58    2
     4    63    66    1
     5    63    64    1
     6    78    77    1
     7    89    90    2
     8    89    88    1
     9    66    67    1
    10    87    88    1
    11    76    77    1
    12    58    57    1
    13    77    80    1
    14    64    65    2
    15    64    68   am
    16    88    91    1
    17    91    92    1
    18    68    69    1
    19    57    56    1
    20    57    60    1
    21    92    93    1
    22    80    81    1
    23    70    69    1
    24    70    71    2
    25    93    94    1
    26    94    95    2
    27    69    72    1
    28    60    61    1
    29    81    82    1
    30    75    73    1
    31    97    95    1
    32    95    96    1
    33    73    72    1
    34    72    74    1
    35    82    83    1
    36    25    24    2
    37    54    55   ar
    38    54    52   ar
    39    55    53   ar
    40    24    23    1
    41    83    84    2
    42    23    22    1
    43    23    26    1
    44    52    51   ar
    45    53    51   ar
    46    51    50    1
    47    84    85    1
    48    84    86    1
    49    50    47    1
    50    26    27    1
    51    27    29   ar
    52    27    28   ar
    53    29    31   ar
    54    31    30   ar
    55    28    30   ar
    56   131   129    1
    57    49    48    2
    58    47    48    1
    59    47    46    1
    60   130   129    1
    61   129   128    2
    62    39    37   ar
    63    46    42   am
    64    45    44    1
    65    38    37   ar
    66   109   110    1
    67   113   110    1
    68   113   114    1
    69    37    36    1
    70    43    42    2
    71   128   127    1
    72    42    41    1
    73   110   111    1
    74    14    11    1
    75   107   106    1
    76     5     6    1
    77     5     2    1
    78     9     7   am
    79    44    41    1
    80     6     7    1
    81     7     8    2
    82    41    40    1
    83   127   126    1
    84    10    11    1
    85    36    33    1
    86    40    34   am
    87   106   108    1
    88   106   105    2
    89    11    12    1
    90   111   112    2
    91   111   115   am
    92     2     3    1
    93     2     1    1
    94   103   104    1
    95   103   102    1
    96    34    33    1
    97    34    35    2
    98     3     4    2
    99    33    32    1
   100   104   105    1
   101   115   116    1
   102   126   125    1
   103    12    13    2
   104    12    15   am
   105    98    99    1
   106   102    99    1
   107   125   122    1
   108    15    16    1
   109   120   119    1
   110   121   122    1
   111   121   117   am
   112    99   100    1
   113   116   119    1
   114   116   117    1
   115    21    19    1
   116    20    19    1
   117   122   123    1
   118   117   118    2
   119    19    16    1
   120    16    17    1
   121   100   101    2
   122   124   123    2
   123    17    18    2
