@<TRIPOS>MOLECULE
tmp/8at1C00.pdb
 104 101 0 0 0
SMALL
GASTEIGER

@<TRIPOS>ATOM
      1  N         57.7330   49.5090   65.1190 N.3   105  ARG105     -0.1245
      2  CA        58.4410   50.1140   64.0010 C.3   105  ARG105      0.1563
      3  C         57.5880   49.7850   62.7940 C.2   105  ARG105      0.2260
      4  O         57.1680   48.6250   62.6720 O.2   105  ARG105     -0.2867
      5  CB        59.7870   49.4960   63.7270 C.3   105  ARG105      0.0307
      6  CG        60.5150   49.9460   62.4690 C.3   105  ARG105      0.0489
      7  CD        61.5550   50.8820   63.0050 C.3   105  ARG105      0.2205
      8  NE        62.8800   50.3440   62.8140 N.pl3 105  ARG105     -0.0865
      9  CZ        64.0030   50.8710   63.3070 C.cat 105  ARG105      0.5346
     10  NH1       65.0880   50.2470   62.9010 N.pl3 105  ARG105      0.1354
     11  NH2       64.1270   51.9140   64.1510 N.pl3 105  ARG105      0.1354
     12  N         61.5930   59.3880   65.0640 N.3   134  HIS134     -0.1241
     13  CA        62.3190   58.3330   65.7400 C.3   134  HIS134      0.1621
     14  C         62.6800   58.8370   67.1430 C.2   134  HIS134      0.2264
     15  O         63.8710   58.9820   67.4280 O.2   134  HIS134     -0.2867
     16  CB        63.6120   57.9500   64.9580 C.3   134  HIS134      0.0745
     17  CG        64.2530   56.5850   65.2910 C.ar  134  HIS134      0.0817
     18  ND1       63.8760   55.8310   66.3350 N.ar  134  HIS134     -0.2268
     19  CD2       65.3110   56.0500   64.6110 C.ar  134  HIS134      0.1154
     20  CE1       64.7180   54.8240   66.3020 C.ar  134  HIS134      0.1986
     21  NE2       65.5670   54.9650   65.2920 N.ar  134  HIS134     -0.2212
     22  N         65.4540   57.1160   69.7170 N.3   137  GLN137     -0.1245
     23  CA        66.8030   57.3580   69.2310 C.3   137  GLN137      0.1566
     24  C         67.3600   58.6440   69.8210 C.2   137  GLN137      0.2260
     25  O         68.4780   58.7510   70.3130 O.2   137  GLN137     -0.2867
     26  CB        66.7640   57.4970   67.7040 C.3   137  GLN137      0.0367
     27  CG        68.0530   57.7400   66.9160 C.3   137  GLN137      0.0905
     28  CD        69.0070   56.5960   67.1270 C.2   137  GLN137      0.2608
     29  OE1       68.5890   55.4670   66.9430 O.2   137  GLN137     -0.2717
     30  NE2       70.2400   56.7630   67.5690 N.am  137  GLN137     -0.0878
     31  N         65.8970   60.8860   56.8260 N.3   166  GLY166     -0.1210
     32  CA        66.3580   60.5570   58.1480 C.3   166  GLY166      0.1956
     33  C         65.4470   60.9690   59.3010 C.2   166  GLY166      0.2612
     34  O         65.5780   62.0520   59.8480 O.2   166  GLY166     -0.2717
     35  N         64.5850   60.0740   59.7570 N.am  167  ARG167     -0.1965
     36  CA        63.7420   60.2700   60.9260 C.3   167  ARG167      0.1729
     37  C         64.5500   60.6360   62.1880 C.2   167  ARG167      0.2616
     38  O         64.0800   61.2830   63.1270 O.2   167  ARG167     -0.2715
     39  CB        62.8820   58.9660   61.1780 C.3   167  ARG167      0.0348
     40  CG        63.6320   57.6210   61.0420 C.3   167  ARG167      0.0492
     41  CD        63.3040   56.3610   61.8860 C.3   167  ARG167      0.2205
     42  NE        62.2670   55.4840   61.3720 N.pl3 167  ARG167     -0.0865
     43  CZ        62.5020   54.2190   60.9900 C.cat 167  ARG167      0.5346
     44  NH1       61.4860   53.5020   60.5250 N.pl3 167  ARG167      0.1354
     45  NH2       63.7210   53.6810   61.0210 N.pl3 167  ARG167      0.1354
     46  N         65.8210   60.2110   62.2030 N.am  168  THR168     -0.1951
     47  CA        66.7240   60.4220   63.3200 C.3   168  THR168      0.1897
     48  C         67.0650   61.8840   63.5500 C.2   168  THR168      0.2313
     49  O         66.9640   62.3600   64.6850 O.2   168  THR168     -0.2863
     50  CB        68.0630   59.6460   63.1340 C.3   168  THR168      0.1794
     51  OG1       68.5860   60.0320   61.8500 O.3   168  THR168     -0.2208
     52  CG2       67.8790   58.1450   63.3910 C.3   168  THR168      0.0378
     53  N         73.1810   57.6310   57.5350 N.3   229  ARG229     -0.1245
     54  CA        73.1400   56.6960   56.4040 C.3   229  ARG229      0.1563
     55  C         72.1540   57.1280   55.2990 C.2   229  ARG229      0.2260
     56  O         71.0560   57.5990   55.6040 O.2   229  ARG229     -0.2867
     57  CB        72.7490   55.3260   56.9640 C.3   229  ARG229      0.0307
     58  CG        72.4860   54.3080   55.9070 C.3   229  ARG229      0.0489
     59  CD        71.8420   53.0530   56.4130 C.3   229  ARG229      0.2205
     60  NE        70.4430   53.1820   56.8090 N.pl3 229  ARG229     -0.0865
     61  CZ        69.4370   52.7830   56.0460 C.cat 229  ARG229      0.5346
     62  NH1       68.1990   52.8520   56.4790 N.pl3 229  ARG229      0.1354
     63  NH2       69.6390   52.3690   54.8170 N.pl3 229  ARG229      0.1354
     64  N         69.2400   56.5420   53.2810 N.3   231  GLN231     -0.1245
     65  CA        68.1400   55.6140   53.4050 C.3   231  GLN231      0.1566
     66  C         67.7990   55.0420   52.0470 C.2   231  GLN231      0.2260
     67  O         66.7560   55.4180   51.5390 O.2   231  GLN231     -0.2867
     68  CB        66.9750   56.3880   54.0170 C.3   231  GLN231      0.0367
     69  CG        67.2860   57.1490   55.3110 C.3   231  GLN231      0.0905
     70  CD        67.6700   56.2350   56.4460 C.2   231  GLN231      0.2608
     71  OE1       66.8210   55.6410   57.1170 O.2   231  GLN231     -0.2717
     72  NE2       68.9650   56.0910   56.6650 N.am  231  GLN231     -0.0878
     73  N         76.7510   58.5190   65.3760 N.3   265  HIS265     -0.1227
     74  CA        76.0240   57.9200   64.2790 C.3   265  HIS265      0.1737
     75  C         74.9510   57.0290   64.9380 C.2   265  HIS265      0.2438
     76  O         75.2580   56.2790   65.8790 O.2   265  HIS265     -0.2733
     77  CB        77.0010   57.1040   63.4090 C.3   265  HIS265      0.0758
     78  CG        76.4790   56.6150   62.0540 C.ar  265  HIS265      0.0818
     79  ND1       75.2960   56.0400   61.8930 N.ar  265  HIS265     -0.2268
     80  CD2       77.1120   56.7970   60.8720 C.ar  265  HIS265      0.1154
     81  CE1       75.1640   55.8980   60.6050 C.ar  265  HIS265      0.1986
     82  NE2       76.2380   56.3660   60.0110 N.ar  265  HIS265     -0.2212
     83  N         73.6690   57.1130   64.5160 N.am  266  PRO266     -0.2718
     84  CA        72.5620   56.2100   64.8580 C.3   266  PRO266      0.1535
     85  C         72.8180   54.7150   64.6000 C.2   266  PRO266      0.2598
     86  O         72.4400   53.8370   65.4040 O.2   266  PRO266     -0.2715
     87  CB        71.3960   56.6430   64.0440 C.3   266  PRO266      0.0310
     88  CG        71.7180   58.0650   63.7640 C.3   266  PRO266      0.0237
     89  CD        73.2130   58.1050   63.5600 C.3   266  PRO266      0.0939
     90  N         73.5150   54.5260   63.4500 N.am  267  LEU267     -0.1964
     91  CA        73.9250   53.2860   62.8300 C.3   267  LEU267      0.1713
     92  C         72.6900   52.6440   62.2340 C.2   267  LEU267      0.2458
     93  O         71.5920   53.1350   62.5030 O.2   267  LEU267     -0.2730
     94  CB        74.6200   52.3970   63.8590 C.3   267  LEU267      0.0310
     95  CG        75.8950   52.9300   64.5620 C.3   267  LEU267      0.0022
     96  CD1       76.3610   51.8500   65.5140 C.3   267  LEU267      0.0001
     97  CD2       77.0160   53.2850   63.5940 C.3   267  LEU267      0.0001
     98  N         72.7280   51.6850   61.3000 N.am  268  PRO268     -0.2727
     99  CA        73.9280   51.1780   60.6230 C.3   268  PRO268      0.1402
    100  C         74.7300   52.1910   59.8180 C.2   268  PRO268      0.2269
    101  O         74.2020   53.2150   59.3540 O.2   268  PRO268     -0.2865
    102  CB        73.4120   50.0700   59.7600 C.3   268  PRO268      0.0296
    103  CG        72.0420   50.5480   59.3970 C.3   268  PRO268      0.0237
    104  CD        71.5270   51.1050   60.6930 C.3   268  PRO268      0.0939
@<TRIPOS>BOND
     1    67    66    2
     2    66    65    1
     3    64    65    1
     4    65    68    1
     5    68    69    1
     6    63    61    1
     7    55    56    2
     8    55    54    1
     9    69    70    1
    10    58    59    1
    11    58    57    1
    12    61    62    1
    13    61    60    2
    14    54    57    1
    15    54    53    1
    16    59    60    1
    17    70    72   am
    18    70    71    2
    19    31    32    1
    20    32    33    1
    21    33    35   am
    22    33    34    2
    23   101   100    2
    24   103   102    1
    25   103   104    1
    26    35    36    1
    27   102    99    1
    28   100    99    1
    29    82    81   ar
    30    82    80   ar
    31    44    43    1
    32    81    79   ar
    33    99    98    1
    34   104    98    1
    35    80    78   ar
    36    36    39    1
    37    36    37    1
    38    43    45    1
    39    43    42    2
    40    40    39    1
    41    40    41    1
    42    98    92   am
    43    42    41    1
    44    51    50    1
    45    79    78   ar
    46    78    77    1
    47    37    46   am
    48    37    38    2
    49    46    47    1
    50    92    93    2
    51    92    91    1
    52     6     7    1
    53     6     5    1
    54     4     3    2
    55     3     2    1
    56     8     7    1
    57     8     9    2
    58    91    90    1
    59    91    94    1
    60    10     9    1
    61    50    47    1
    62    50    52    1
    63     9    11    1
    64    47    48    1
    65    77    74    1
    66    90    85   am
    67    48    49    2
    68    89    88    1
    69    89    83    1
    70    97    95    1
    71     5     2    1
    72    88    87    1
    73    94    95    1
    74     2     1    1
    75    87    84    1
    76    74    75    1
    77    74    73    1
    78    83    84    1
    79    83    75   am
    80    95    96    1
    81    85    84    1
    82    85    86    2
    83    19    17   ar
    84    19    21   ar
    85    75    76    2
    86    16    17    1
    87    16    13    1
    88    12    13    1
    89    17    18   ar
    90    21    20   ar
    91    13    14    1
    92    20    18   ar
    93    27    28    1
    94    27    26    1
    95    29    28    2
    96    28    30   am
    97    14    15    2
    98    26    23    1
    99    23    22    1
   100    23    24    1
   101    24    25    2
