@<TRIPOS>MOLECULE
tmp/8cgtA00.pdb
 250 245 0 0 0
SMALL
GASTEIGER

@<TRIPOS>ATOM
      1  N         63.4450   -1.2560   13.3870 N.3    47  LYS47      -0.1245
      2  CA        62.1920   -0.6160   13.7920 C.3    47  LYS47       0.1561
      3  C         61.7240   -1.1670   15.1330 C.2    47  LYS47       0.2260
      4  O         60.7840   -0.6430   15.7330 O.2    47  LYS47      -0.2867
      5  CB        61.0990   -0.8740   12.7590 C.3    47  LYS47       0.0271
      6  CG        61.2970   -0.1880   11.4330 C.3    47  LYS47       0.0035
      7  CD        60.9910    1.2940   11.5160 C.3    47  LYS47       0.0206
      8  CE        60.9130    1.8890   10.1170 C.3    47  LYS47       0.1093
      9  NZ        60.4890    3.3090   10.1420 N.3    47  LYS47      -0.1314
     10  N         52.9100   -0.4640    9.8430 N.3    89  TYR89      -0.1227
     11  CA        52.8130    0.5240    8.7690 C.3    89  TYR89       0.1736
     12  C         53.0780   -0.1690    7.4470 C.2    89  TYR89       0.2596
     13  O         54.2290   -0.4720    7.1120 O.2    89  TYR89      -0.2718
     14  CB        53.8030    1.6780    8.9630 C.3    89  TYR89       0.0548
     15  CG        53.3550    2.7050    9.9750 C.ar   89  TYR89      -0.0200
     16  CD1       52.1950    3.4530    9.7720 C.ar   89  TYR89      -0.0009
     17  CD2       54.0870    2.9270   11.1380 C.ar   89  TYR89      -0.0009
     18  CE1       51.7760    4.3980   10.7060 C.ar   89  TYR89       0.0417
     19  CE2       53.6780    3.8690   12.0760 C.ar   89  TYR89       0.0417
     20  CZ        52.5220    4.6030   11.8550 C.ar   89  TYR89       0.1957
     21  OH        52.1260    5.5440   12.7820 O.3    89  TYR89      -0.2866
     22  N         51.9950   -0.4350    6.7150 N.am   90  SER90      -0.1952
     23  CA        52.0420   -1.1100    5.4170 C.3    90  SER90       0.1924
     24  C         53.0180   -2.2890    5.3920 C.2    90  SER90       0.2314
     25  O         53.9960   -2.2940    4.6420 O.2    90  SER90      -0.2863
     26  CB        52.3370   -0.1150    4.2820 C.3    90  SER90       0.2116
     27  OG        53.5650    0.5670    4.4750 O.3    90  SER90      -0.2180
     28  N         55.4240   -3.3800    7.5520 N.3    92  VAL92      -0.1245
     29  CA        56.4880   -3.3390    8.5550 C.3    92  VAL92       0.1561
     30  C         56.0200   -2.9970    9.9800 C.2    92  VAL92       0.2260
     31  O         55.1640   -2.1310   10.1830 O.2    92  VAL92      -0.2867
     32  CB        57.6580   -2.4140    8.0930 C.3    92  VAL92       0.0252
     33  CG1       57.1960   -0.9650    7.9640 C.3    92  VAL92       0.0019
     34  CG2       58.8420   -2.5340    9.0410 C.3    92  VAL92       0.0019
     35  N         56.4740   -1.4520   13.5710 N.3    94  ASN94      -0.1240
     36  CA        57.1590   -0.3400   14.2240 C.3    94  ASN94       0.1653
     37  C         56.9110   -0.3390   15.7260 C.2    94  ASN94       0.2266
     38  O         55.8230   -0.6980   16.1790 O.2    94  ASN94      -0.2867
     39  CB        56.6570    0.9970   13.6650 C.3    94  ASN94       0.1155
     40  CG        57.1560    1.2820   12.2690 C.2    94  ASN94       0.2627
     41  OD1       57.9680    2.1820   12.0690 O.2    94  ASN94      -0.2716
     42  ND2       56.6540    0.5410   11.2910 N.am   94  ASN94      -0.0877
     43  N         60.7390    2.5530   20.0510 N.3    97  TYR97      -0.1227
     44  CA        62.1270    2.4950   20.5170 C.3    97  TYR97       0.1736
     45  C         62.8050    3.8740   20.5910 C.2    97  TYR97       0.2595
     46  O         63.7100    4.0910   21.3940 O.2    97  TYR97      -0.2718
     47  CB        62.9500    1.5800   19.6020 C.3    97  TYR97       0.0548
     48  CG        63.2730    2.2010   18.2520 C.ar   97  TYR97      -0.0200
     49  CD1       62.3710    2.1210   17.1880 C.ar   97  TYR97      -0.0009
     50  CD2       64.4620    2.9170   18.0570 C.ar   97  TYR97      -0.0009
     51  CE1       62.6390    2.7440   15.9650 C.ar   97  TYR97       0.0417
     52  CE2       64.7410    3.5460   16.8350 C.ar   97  TYR97       0.0417
     53  CZ        63.8230    3.4550   15.7970 C.ar   97  TYR97       0.1957
     54  OH        64.0860    4.0880   14.6010 O.3    97  TYR97      -0.2866
     55  N         62.3780    4.7880   19.7270 N.am   98  HIS98      -0.1975
     56  CA        62.9430    6.1350   19.6470 C.3    98  HIS98       0.1656
     57  C         62.5260    7.0720   20.7840 C.2    98  HIS98       0.2291
     58  O         63.1280    8.1330   20.9750 O.2    98  HIS98      -0.2864
     59  CB        62.5630    6.7470   18.3050 C.3    98  HIS98       0.0771
     60  CG        61.1200    6.5650   17.9600 C.ar   98  HIS98       0.0820
     61  ND1       60.7000    5.7860   16.9040 N.ar   98  HIS98      -0.2267
     62  CD2       59.9970    7.0360   18.5510 C.ar   98  HIS98       0.1154
     63  CE1       59.3800    5.7840   16.8590 C.ar   98  HIS98       0.1986
     64  NE2       58.9290    6.5360   17.8470 N.ar   98  HIS98      -0.2212
     65  N         59.7750    8.8740   21.0100 N.3   100  TYR100     -0.1227
     66  CA        58.9310    9.9870   20.5670 C.3   100  TYR100      0.1736
     67  C         57.4250    9.7750   20.6460 C.2   100  TYR100      0.2595
     68  O         56.6620   10.6950   20.3630 O.2   100  TYR100     -0.2718
     69  CB        59.3100   10.4120   19.1430 C.3   100  TYR100      0.0548
     70  CG        60.7050   10.9700   19.0390 C.ar  100  TYR100     -0.0200
     71  CD1       61.0690   12.1070   19.7520 C.ar  100  TYR100     -0.0009
     72  CD2       61.6770   10.3400   18.2630 C.ar  100  TYR100     -0.0009
     73  CE1       62.3650   12.6070   19.7030 C.ar  100  TYR100      0.0417
     74  CE2       62.9800   10.8310   18.2060 C.ar  100  TYR100      0.0417
     75  CZ        63.3150   11.9660   18.9320 C.ar  100  TYR100      0.1957
     76  OH        64.5960   12.4680   18.8940 O.3   100  TYR100     -0.2866
     77  N         56.9900    8.5700   21.0030 N.am  101  TRP101     -0.1976
     78  CA        55.5580    8.2800   21.1000 C.3   101  TRP101      0.1640
     79  C         55.1190    8.1710   22.5570 C.2   101  TRP101      0.2290
     80  O         54.6930    7.1090   23.0160 O.2   101  TRP101     -0.2864
     81  CB        55.2160    6.9960   20.3410 C.3   101  TRP101      0.0576
     82  CG        55.4370    7.0950   18.8630 C.ar  101  TRP101      0.0006
     83  CD1       55.5560    8.2370   18.1240 C.ar  101  TRP101      0.0946
     84  CD2       55.5770    6.0070   17.9430 C.ar  101  TRP101      0.0152
     85  NE1       55.7610    7.9280   16.8040 N.ar  101  TRP101     -0.2442
     86  CE2       55.7790    6.5650   16.6650 C.ar  101  TRP101      0.0810
     87  CE3       55.5520    4.6120   18.0760 C.ar  101  TRP101      0.0012
     88  CZ2       55.9550    5.7760   15.5260 C.ar  101  TRP101      0.0191
     89  CZ3       55.7280    3.8300   16.9440 C.ar  101  TRP101      0.0001
     90  CH2       55.9260    4.4150   15.6870 C.ar  101  TRP101      0.0015
     91  N         53.0550   16.3840   20.7180 N.3   140  HIS140     -0.1241
     92  CA        52.0970   15.3060   20.4970 C.3   140  HIS140      0.1621
     93  C         52.3010   14.1360   21.4400 C.2   140  HIS140      0.2264
     94  O         53.2340   14.1150   22.2420 O.2   140  HIS140     -0.2867
     95  CB        52.3160   14.7760   19.0790 C.3   140  HIS140      0.0745
     96  CG        53.7440   14.4080   18.8030 C.ar  140  HIS140      0.0817
     97  ND1       54.6330   15.2720   18.2000 N.ar  140  HIS140     -0.2268
     98  CD2       54.4580   13.3020   19.1260 C.ar  140  HIS140      0.1154
     99  CE1       55.8320   14.7180   18.1670 C.ar  140  HIS140      0.1986
    100  NE2       55.7530   13.5230   18.7220 N.ar  140  HIS140     -0.2212
    101  N         50.8270    8.0040   17.4590 N.3   143  PRO143     -0.2116
    102  CA        49.9740    7.8470   16.2750 C.3   143  PRO143      0.1372
    103  C         48.5280    7.5330   16.6420 C.2   143  PRO143      0.2244
    104  O         48.2600    6.7310   17.5350 O.2   143  PRO143     -0.2868
    105  CB        50.6290    6.6800   15.5370 C.3   143  PRO143      0.0268
    106  CG        52.0610    6.8160   15.8970 C.3   143  PRO143      0.0207
    107  CD        51.9870    7.0970   17.3740 C.3   143  PRO143      0.0892
    108  N         52.2330   20.9300    5.3470 N.3   183  PHE183     -0.1241
    109  CA        53.4490   21.7370    5.4180 C.3   183  PHE183      0.1605
    110  C         53.5040   22.9100    4.4370 C.2   183  PHE183      0.2264
    111  O         54.5860   23.3990    4.1180 O.2   183  PHE183     -0.2867
    112  CB        54.6890   20.8440    5.2420 C.3   183  PHE183      0.0534
    113  CG        54.7400   19.6830    6.1970 C.ar  183  PHE183     -0.0203
    114  CD1       55.1560   19.8630    7.5130 C.ar  183  PHE183     -0.0042
    115  CD2       54.3320   18.4150    5.7920 C.ar  183  PHE183     -0.0042
    116  CE1       55.1610   18.8010    8.4130 C.ar  183  PHE183     -0.0003
    117  CE2       54.3330   17.3480    6.6820 C.ar  183  PHE183     -0.0003
    118  CZ        54.7480   17.5430    7.9980 C.ar  183  PHE183     -0.0000
    119  N         51.1480   16.3090   12.8440 N.3   194  LEU194     -0.1231
    120  CA        52.4240   15.9690   12.2400 C.3   194  LEU194      0.1693
    121  C         52.1970   14.5020   11.8650 C.2   194  LEU194      0.2592
    122  O         52.2630   13.6180   12.7250 O.2   194  LEU194     -0.2718
    123  CB        53.5360   16.0420   13.2820 C.3   194  LEU194      0.0284
    124  CG        54.6560   17.0560   13.1070 C.3   194  LEU194      0.0019
    125  CD1       55.7910   16.6770   14.0500 C.3   194  LEU194      0.0001
    126  CD2       55.1490   17.0410   11.6780 C.3   194  LEU194      0.0001
    127  N         51.8730   14.2580   10.5990 N.am  195  TYR195     -0.1962
    128  CA        51.5950   12.9080   10.1050 C.3   195  TYR195      0.1771
    129  C         50.3530   12.3930   10.8320 C.2   195  TYR195      0.2620
    130  O         49.2860   12.9990   10.7180 O.2   195  TYR195     -0.2715
    131  CB        52.8060   11.9840   10.3070 C.3   195  TYR195      0.0574
    132  CG        54.0820   12.5300    9.6950 C.ar  195  TYR195     -0.0198
    133  CD1       54.1250   12.9280    8.3530 C.ar  195  TYR195     -0.0009
    134  CD2       55.2370   12.6840   10.4650 C.ar  195  TYR195     -0.0009
    135  CE1       55.2850   13.4700    7.7950 C.ar  195  TYR195      0.0417
    136  CE2       56.4030   13.2250    9.9180 C.ar  195  TYR195      0.0417
    137  CZ        56.4210   13.6170    8.5830 C.ar  195  TYR195      0.1957
    138  OH        57.5710   14.1620    8.0450 O.3   195  TYR195     -0.2866
    139  N         50.4770   11.3150   11.6010 N.am  196  ASP196     -0.1957
    140  CA        49.3200   10.7910   12.3180 C.3   196  ASP196      0.1840
    141  C         49.4280   10.9530   13.8300 C.2   196  ASP196      0.2621
    142  O         48.6170   10.4100   14.5830 O.2   196  ASP196     -0.2715
    143  CB        49.0450    9.3310   11.9370 C.3   196  ASP196      0.1450
    144  CG        50.2460    8.4150   12.1450 C.2   196  ASP196      0.3671
    145  OD1       51.3190    8.8690   12.6080 O.co2 196  ASP196     -0.2456
    146  OD2       50.1040    7.2130   11.8320 O.co2 196  ASP196     -0.2456
    147  N         50.4250   11.7220   14.2590 N.am  197  LEU197     -0.1977
    148  CA        50.6620   11.9990   15.6710 C.3   197  LEU197      0.1596
    149  C         49.6180   12.9830   16.2070 C.2   197  LEU197      0.2287
    150  O         49.4690   14.0860   15.6730 O.2   197  LEU197     -0.2864
    151  CB        52.0630   12.5820   15.8510 C.3   197  LEU197      0.0297
    152  CG        53.2040   11.6490   15.4450 C.3   197  LEU197      0.0022
    153  CD1       54.5180   12.4140   15.3850 C.3   197  LEU197      0.0001
    154  CD2       53.3030   10.4970   16.4260 C.3   197  LEU197      0.0001
    155  N         66.3410   19.1840   25.1680 N.3   227  ARG227     -0.1245
    156  CA        66.2760   19.3040   23.7130 C.3   227  ARG227      0.1563
    157  C         64.7890   19.1840   23.4020 C.2   227  ARG227      0.2260
    158  O         64.2050   18.1090   23.5540 O.2   227  ARG227     -0.2867
    159  CB        67.0300   18.1670   23.0140 C.3   227  ARG227      0.0307
    160  CG        67.3500   18.4280   21.5200 C.3   227  ARG227      0.0489
    161  CD        66.1470   18.3320   20.5650 C.3   227  ARG227      0.2205
    162  NE        65.6810   16.9620   20.3690 N.pl3 227  ARG227     -0.0865
    163  CZ        65.0610   16.5130   19.2780 C.cat 227  ARG227      0.5346
    164  NH1       64.8180   17.3130   18.2570 N.pl3 227  ARG227      0.1354
    165  NH2       64.6750   15.2500   19.2110 N.pl3 227  ARG227      0.1354
    166  N         61.7040   18.8560   21.0610 N.3   229  ASP229     -0.1225
    167  CA        61.3950   18.3170   19.7470 C.3   229  ASP229      0.1805
    168  C         60.2960   19.0930   19.0090 C.2   229  ASP229      0.2597
    169  O         59.3580   19.5960   19.6280 O.2   229  ASP229     -0.2718
    170  CB        60.9990   16.8430   19.9230 C.3   229  ASP229      0.1424
    171  CG        60.4720   16.2090   18.6560 C.2   229  ASP229      0.3668
    172  OD1       61.2800   15.9050   17.7490 O.co2 229  ASP229     -0.2456
    173  OD2       59.2460   15.9900   18.5890 O.co2 229  ASP229     -0.2456
    174  N         60.4590   19.2310   17.6920 N.am  230  ALA230     -0.1979
    175  CA        59.4790   19.8920   16.8230 C.3   230  ALA230      0.1597
    176  C         59.0040   21.2850   17.2370 C.2   230  ALA230      0.2287
    177  O         57.8080   21.5880   17.1440 O.2   230  ALA230     -0.2864
    178  CB        58.2600   18.9680   16.6260 C.3   230  ALA230      0.0319
    179  N         59.0790   23.9150   15.7080 N.3   232  LYS232     -0.1231
    180  CA        58.4780   24.5880   14.5600 C.3   232  LYS232      0.1693
    181  C         56.9900   24.2240   14.4270 C.2   232  LYS232      0.2592
    182  O         56.2520   24.8410   13.6550 O.2   232  LYS232     -0.2718
    183  CB        59.2370   24.1590   13.3010 C.3   232  LYS232      0.0285
    184  CG        58.7670   24.7450   11.9920 C.3   232  LYS232      0.0035
    185  CD        59.5460   24.1020   10.8550 C.3   232  LYS232      0.0206
    186  CE        59.1490   24.6630    9.5020 C.3   232  LYS232      0.1093
    187  NZ        59.9500   24.0050    8.4220 N.3   232  LYS232     -0.1314
    188  N         56.5460   23.2520   15.2180 N.am  233  HIS233     -0.1976
    189  CA        55.1690   22.7920   15.1440 C.3   233  HIS233      0.1656
    190  C         54.3040   23.1120   16.3530 C.2   233  HIS233      0.2291
    191  O         53.2260   22.5320   16.5380 O.2   233  HIS233     -0.2864
    192  CB        55.1540   21.2970   14.8140 C.3   233  HIS233      0.0771
    193  CG        55.9450   20.9630   13.5900 C.ar  233  HIS233      0.0820
    194  ND1       55.5030   21.2610   12.3190 N.ar  233  HIS233     -0.2267
    195  CD2       57.1950   20.4620   13.4460 C.ar  233  HIS233      0.1154
    196  CE1       56.4510   20.9690   11.4470 C.ar  233  HIS233      0.1986
    197  NE2       57.4880   20.4830   12.1050 N.ar  233  HIS233     -0.2212
    198  N         64.6030   21.8410   17.9710 N.3   257  ALA257     -0.1245
    199  CA        64.8320   21.3670   16.6120 C.3   257  ALA257      0.1562
    200  C         63.8860   21.9970   15.6100 C.2   257  ALA257      0.2260
    201  O         62.6960   21.6730   15.5800 O.2   257  ALA257     -0.2867
    202  CB        64.7110   19.8570   16.5570 C.3   257  ALA257      0.0290
    203  N         63.8570   22.2570   11.7700 N.3   259  PHE259     -0.1241
    204  CA        64.4910   21.7950   10.5440 C.3   259  PHE259      0.1605
    205  C         64.6180   22.8150    9.4130 C.2   259  PHE259      0.2264
    206  O         63.6860   23.5620    9.1140 O.2   259  PHE259     -0.2867
    207  CB        63.7970   20.5280   10.0280 C.3   259  PHE259      0.0534
    208  CG        64.4710   19.9170    8.8290 C.ar  259  PHE259     -0.0203
    209  CD1       65.5050   18.9980    8.9910 C.ar  259  PHE259     -0.0042
    210  CD2       64.1020   20.2930    7.5350 C.ar  259  PHE259     -0.0042
    211  CE1       66.1670   18.4640    7.8850 C.ar  259  PHE259     -0.0003
    212  CE2       64.7560   19.7680    6.4220 C.ar  259  PHE259     -0.0003
    213  CZ        65.7910   18.8520    6.5970 C.ar  259  PHE259     -0.0000
    214  N         69.8830   11.7870   13.7120 N.3   327  HIS327     -0.1226
    215  CA        68.8410   10.8310   13.3260 C.3   327  HIS327      0.1752
    216  C         67.8790   11.2780   12.2210 C.2   327  HIS327      0.2596
    217  O         67.0520   10.4860   11.7710 O.2   327  HIS327     -0.2718
    218  CB        68.0260   10.4500   14.5530 C.3   327  HIS327      0.0759
    219  CG        67.3840   11.6240   15.2210 C.ar  327  HIS327      0.0818
    220  ND1       68.1200   12.6370   15.7980 N.ar  327  HIS327     -0.2268
    221  CD2       66.0850   11.9840   15.3370 C.ar  327  HIS327      0.1154
    222  CE1       67.3000   13.5760   16.2340 C.ar  327  HIS327      0.1986
    223  NE2       66.0590   13.2050   15.9680 N.ar  327  HIS327     -0.2212
    224  N         67.9590   12.5380   11.8050 N.am  328  ASP328     -0.1974
    225  CA        67.0710   13.0530   10.7600 C.3   328  ASP328      0.1709
    226  C         67.6890   13.0740    9.3660 C.2   328  ASP328      0.2293
    227  O         67.0710   13.5770    8.4270 O.2   328  ASP328     -0.2864
    228  CB        66.6140   14.4830   11.0870 C.3   328  ASP328      0.1436
    229  CG        65.6090   14.5450   12.2190 C.2   328  ASP328      0.3671
    230  OD1       64.7880   13.6080   12.3600 O.co2 328  ASP328     -0.2456
    231  OD2       65.6310   15.5590   12.9520 O.co2 328  ASP328     -0.2456
    232  N         66.0380    6.9010    7.7590 N.3   371  ASP371     -0.1239
    233  CA        65.3730    6.3230    8.9170 C.3   371  ASP371      0.1674
    234  C         64.9030    4.9530    8.4050 C.2   371  ASP371      0.2266
    235  O         64.2410    4.8820    7.3680 O.2   371  ASP371     -0.2867
    236  CB        64.1830    7.2330    9.2700 C.3   371  ASP371      0.1410
    237  CG        63.3970    6.7620   10.4770 C.2   371  ASP371      0.3668
    238  OD1       63.7950    5.7810   11.1360 O.co2 371  ASP371     -0.2456
    239  OD2       62.3600    7.3900   10.7720 O.co2 371  ASP371     -0.2456
    240  N         70.1180    4.6660   12.5490 N.3   375  ARG375     -0.1245
    241  CA        69.9720    4.4590   13.9860 C.3   375  ARG375      0.1563
    242  C         70.3830    3.0390   14.3630 C.2   375  ARG375      0.2260
    243  O         69.7540    2.3970   15.2060 O.2   375  ARG375     -0.2867
    244  CB        68.5290    4.7440   14.4320 C.3   375  ARG375      0.0307
    245  CG        68.1950    6.2270   14.5020 C.3   375  ARG375      0.0489
    246  CD        67.2310    6.6770   13.4210 C.3   375  ARG375      0.2205
    247  NE        65.8520    6.6320   13.8800 N.pl3 375  ARG375     -0.0865
    248  CZ        64.9650    7.6020   13.6860 C.cat 375  ARG375      0.5346
    249  NH1       65.3060    8.7080   13.0360 N.pl3 375  ARG375      0.1354
    250  NH2       63.7260    7.4610   14.1390 N.pl3 375  ARG375      0.1354
@<TRIPOS>BOND
     1   111   110    2
     2    26    27    1
     3    26    23    1
     4   110   109    1
     5    25    24    2
     6   112   109    1
     7   112   113    1
     8   108   109    1
     9    24    23    1
    10    23    22    1
    11   115   113   ar
    12   115   117   ar
    13   113   114   ar
    14   212   213   ar
    15   212   210   ar
    16   213   211   ar
    17   117   118   ar
    18    22    12   am
    19    13    12    2
    20   235   234    2
    21    12    11    1
    22   114   116   ar
    23   210   208   ar
    24    28    29    1
    25   232   233    1
    26   135   133   ar
    27   135   137   ar
    28   211   209   ar
    29    33    32    1
    30   118   116   ar
    31   138   137    1
    32    32    29    1
    33    32    34    1
    34   133   132   ar
    35   234   233    1
    36   187   186    1
    37   227   226    2
    38    29    30    1
    39   137   136   ar
    40    11    14    1
    41    11    10    1
    42   208   209   ar
    43   208   207    1
    44   233   236    1
    45    14    15    1
    46   206   205    2
    47   236   237    1
    48   226   225    1
    49   205   204    1
    50   186   185    1
    51   132   131    1
    52   132   134   ar
    53    16    15   ar
    54    16    18   ar
    55   136   134   ar
    56    15    17   ar
    57    30    31    2
    58   207   204    1
    59   128   131    1
    60   128   127    1
    61   128   129    1
    62     8     9    1
    63     8     7    1
    64   237   239   ar
    65   237   238   ar
    66   204   203    1
    67   127   121   am
    68    18    20   ar
    69   130   129    2
    70   225   228    1
    71   225   224    1
    72   129   139   am
    73   185   184    1
    74   228   229    1
    75    17    19   ar
    76    42    40   am
    77     6     7    1
    78     6     5    1
    79   196   197   ar
    80   196   194   ar
    81   139   140    1
    82   126   124    1
    83   217   216    2
    84   224   216   am
    85   146   144   ar
    86    20    19   ar
    87    20    21    1
    88   121   120    1
    89   121   122    2
    90   143   144    1
    91   143   140    1
    92   184   183    1
    93    41    40    2
    94   197   195   ar
    95   144   145   ar
    96   229   230   ar
    97   229   231   ar
    98   216   215    1
    99   120   119    1
   100   120   123    1
   101    40    39    1
   102   140   141    1
   103   194   193   ar
   104   240   241    1
   105     5     2    1
   106   249   248    1
   107   124   123    1
   108   124   125    1
   109   183   180    1
   110   215   214    1
   111   215   218    1
   112     1     2    1
   113   246   247    1
   114   246   245    1
   115   195   193   ar
   116    35    36    1
   117   193   192    1
   118   182   181    2
   119    39    36    1
   120   248   247    2
   121   248   250    1
   122     2     3    1
   123   141   147   am
   124   141   142    2
   125   241   242    1
   126   241   244    1
   127    36    37    1
   128   147   148    1
   129   242   243    2
   130   181   180    1
   131   181   188   am
   132   244   245    1
   133   218   219    1
   134   180   179    1
   135    54    53    1
   136   192   189    1
   137     3     4    2
   138   189   188    1
   139   189   190    1
   140   219   221   ar
   141   219   220   ar
   142   221   223   ar
   143   153   152    1
   144   152   151    1
   145   152   154    1
   146    88    90   ar
   147    88    86   ar
   148   105   106    1
   149   105   102    1
   150   201   200    2
   151   200   199    1
   152   148   151    1
   153   148   149    1
   154   150   149    2
   155    90    89   ar
   156    37    38    2
   157    53    51   ar
   158    53    52   ar
   159   220   222   ar
   160   106   107    1
   161    51    49   ar
   162   223   222   ar
   163   102   103    1
   164   102   101    1
   165   190   191    2
   166   202   199    1
   167   199   198    1
   168   178   175    1
   169   103   104    2
   170    86    85   ar
   171    86    84   ar
   172    85    83   ar
   173   175   176    1
   174   175   174    1
   175    52    50   ar
   176    63    61   ar
   177    63    64   ar
   178    61    60   ar
   179    89    87   ar
   180   177   176    2
   181    49    48   ar
   182   107   101    1
   183   174   168   am
   184   172   171   ar
   185    64    62   ar
   186    84    87   ar
   187    84    82   ar
   188    60    59    1
   189    60    62   ar
   190    50    48   ar
   191    83    82   ar
   192    99    97   ar
   193    99   100   ar
   194    97    96   ar
   195    74    72   ar
   196    74    75   ar
   197    48    47    1
   198   164   163    1
   199    72    70   ar
   200    59    56    1
   201   173   171   ar
   202   171   170    1
   203   100    98   ar
   204    96    95    1
   205    96    98   ar
   206    82    81    1
   207    76    75    1
   208    75    73   ar
   209   168   169    2
   210   168   167    1
   211    70    69    1
   212    70    71   ar
   213    95    92    1
   214    69    66    1
   215   165   163    1
   216   163   162    2
   217    47    44    1
   218    56    55    1
   219    56    57    1
   220    73    71   ar
   221    55    45   am
   222   167   170    1
   223   167   166    1
   224    43    44    1
   225    81    78    1
   226    68    67    2
   227   162   161    1
   228    92    91    1
   229    92    93    1
   230    44    45    1
   231   161   160    1
   232    66    67    1
   233    66    65    1
   234    45    46    2
   235    67    77   am
   236    57    58    2
   237    77    78    1
   238    78    79    1
   239    93    94    2
   240   160   159    1
   241    79    80    2
   242   159   156    1
   243   157   158    2
   244   157   156    1
   245   156   155    1
