@<TRIPOS>MOLECULE
tmp/8choA00.pdb
 144 134 0 0 0
SMALL
GASTEIGER

@<TRIPOS>ATOM
      1  N         20.5180   69.9940   11.6830 N.3    38  ASP38      -0.1239
      2  CA        19.5010   71.0000   11.4410 C.3    38  ASP38       0.1674
      3  C         18.4590   70.3500   10.5310 C.2    38  ASP38       0.2266
      4  O         18.7360   70.0710    9.3640 O.2    38  ASP38      -0.2867
      5  CB        20.1740   72.1710   10.7270 C.3    38  ASP38       0.1410
      6  CG        19.3780   73.4570   10.7900 C.2    38  ASP38       0.3668
      7  OD1       18.1350   73.4120   10.8450 O.co2  38  ASP38      -0.2456
      8  OD2       20.0170   74.5330   10.7740 O.co2  38  ASP38      -0.2456
      9  N         25.6250   72.8670    3.0830 N.3    54  PHE54      -0.1241
     10  CA        24.3700   73.0050    3.7910 C.3    54  PHE54       0.1605
     11  C         24.0050   74.4800    3.8370 C.2    54  PHE54       0.2264
     12  O         22.9420   74.8830    3.3710 O.2    54  PHE54      -0.2867
     13  CB        24.5110   72.4210    5.2080 C.3    54  PHE54       0.0534
     14  CG        23.3060   72.6430    6.0840 C.ar   54  PHE54      -0.0203
     15  CD1       22.1170   71.9680    5.8420 C.ar   54  PHE54      -0.0042
     16  CD2       23.3480   73.5610    7.1190 C.ar   54  PHE54      -0.0042
     17  CE1       20.9810   72.2160    6.6250 C.ar   54  PHE54      -0.0003
     18  CE2       22.2230   73.8180    7.9040 C.ar   54  PHE54      -0.0003
     19  CZ        21.0420   73.1440    7.6560 C.ar   54  PHE54      -0.0000
     20  N         23.0720   76.1020    0.6250 N.3    57  ASN57      -0.1225
     21  CA        21.6820   75.8680    0.2690 C.3    57  ASN57       0.1785
     22  C         20.7200   76.7310    1.0690 C.2    57  ASN57       0.2597
     23  O         19.7220   77.2300    0.5320 O.2    57  ASN57      -0.2718
     24  CB        21.3200   74.4220    0.4910 C.3    57  ASN57       0.1169
     25  CG        21.3910   73.6210   -0.7670 C.2    57  ASN57       0.2627
     26  OD1       20.3640   73.3220   -1.3780 O.2    57  ASN57      -0.2716
     27  ND2       22.6080   73.2800   -1.1920 N.am   57  ASN57      -0.0877
     28  N         20.9940   76.8940    2.3600 N.am   58  SER58      -0.1952
     29  CA        20.1310   77.7010    3.2090 C.3    58  SER58       0.1924
     30  C         20.1110   79.1280    2.6950 C.2    58  SER58       0.2314
     31  O         19.0760   79.7890    2.6870 O.2    58  SER58      -0.2863
     32  CB        20.6300   77.6770    4.6530 C.3    58  SER58       0.2116
     33  OG        20.6770   76.3570    5.1420 O.3    58  SER58      -0.2180
     34  N         20.1250   80.2440   -0.2920 N.3    60  LYS60      -0.1231
     35  CA        19.6370   80.3460   -1.6640 C.3    60  LYS60       0.1693
     36  C         18.7520   81.5970   -1.6750 C.2    60  LYS60       0.2591
     37  O         18.7640   82.4030   -2.6160 O.2    60  LYS60      -0.2718
     38  CB        18.7860   79.1200   -1.9900 C.3    60  LYS60       0.0285
     39  CG        18.6130   78.8390   -3.4720 C.3    60  LYS60       0.0035
     40  CD        19.8910   78.2460   -4.0660 C.3    60  LYS60       0.0206
     41  CE        20.1760   76.8410   -3.5160 C.3    60  LYS60       0.1093
     42  NZ        21.4220   76.2410   -4.0680 N.3    60  LYS60      -0.1314
     43  N         17.9470   81.7300   -0.6280 N.am   61  LEU61      -0.1980
     44  CA        17.0770   82.8800   -0.4670 C.3    61  LEU61       0.1596
     45  C         17.6710   83.7380    0.6350 C.2    61  LEU61       0.2287
     46  O         18.2670   83.2330    1.5660 O.2    61  LEU61      -0.2864
     47  CB        15.6590   82.4470   -0.0640 C.3    61  LEU61       0.0297
     48  CG        14.8430   81.6000   -1.0400 C.3    61  LEU61       0.0022
     49  CD1       13.5570   81.1400   -0.4000 C.3    61  LEU61       0.0001
     50  CD2       14.5470   82.4280   -2.2630 C.3    61  LEU61       0.0001
     51  N         18.1550   85.7350    3.8770 N.3    63  LEU63      -0.1245
     52  CA        17.6290   85.5160    5.2150 C.3    63  LEU63       0.1561
     53  C         17.8040   86.7540    6.0680 C.2    63  LEU63       0.2260
     54  O         18.7990   87.4590    5.9400 O.2    63  LEU63      -0.2867
     55  CB        18.4020   84.3720    5.8780 C.3    63  LEU63       0.0270
     56  CG        18.5050   83.1060    5.0540 C.3    63  LEU63       0.0019
     57  CD1       19.2610   82.0730    5.8210 C.3    63  LEU63       0.0001
     58  CD2       17.1180   82.6090    4.7380 C.3    63  LEU63       0.0001
     59  N         14.4410   83.4390   11.7480 N.3    84  VAL84      -0.1245
     60  CA        15.0070   83.5440   10.4070 C.3    84  VAL84       0.1561
     61  C         13.7750   83.8800    9.5920 C.2    84  VAL84       0.2260
     62  O         12.7510   83.2070    9.6950 O.2    84  VAL84      -0.2867
     63  CB        15.5600   82.2080    9.9260 C.3    84  VAL84       0.0252
     64  CG1       16.1440   82.3630    8.5660 C.3    84  VAL84       0.0019
     65  CG2       16.6170   81.6850   10.8800 C.3    84  VAL84       0.0019
     66  N         12.1530   85.0080    5.6960 N.3    86  PHE86      -0.1241
     67  CA        12.4130   85.0350    4.2660 C.3    86  PHE86       0.1605
     68  C         11.0690   85.0800    3.5560 C.2    86  PHE86       0.2264
     69  O         10.0340   84.7590    4.1520 O.2    86  PHE86      -0.2867
     70  CB        13.2170   83.8060    3.8270 C.3    86  PHE86       0.0534
     71  CG        12.5350   82.5040    4.1090 C.ar   86  PHE86      -0.0203
     72  CD1       12.7110   81.8650    5.3350 C.ar   86  PHE86      -0.0042
     73  CD2       11.7020   81.9170    3.1600 C.ar   86  PHE86      -0.0042
     74  CE1       12.0660   80.6620    5.6100 C.ar   86  PHE86      -0.0003
     75  CE2       11.0610   80.7250    3.4280 C.ar   86  PHE86      -0.0003
     76  CZ        11.2400   80.0960    4.6530 C.ar   86  PHE86      -0.0000
     77  N          8.9480   84.1490   -0.1440 N.3    88  TYR88      -0.1241
     78  CA         8.9720   83.2170   -1.2470 C.3    88  TYR88       0.1605
     79  C          7.5820   83.1640   -1.9180 C.2    88  TYR88       0.2264
     80  O          6.5900   82.8370   -1.2650 O.2    88  TYR88      -0.2867
     81  CB         9.4020   81.8530   -0.7370 C.3    88  TYR88       0.0534
     82  CG         9.4270   80.8400   -1.8230 C.ar   88  TYR88      -0.0201
     83  CD1       10.4320   80.8540   -2.7710 C.ar   88  TYR88      -0.0009
     84  CD2        8.3880   79.9300   -1.9630 C.ar   88  TYR88      -0.0009
     85  CE1       10.3990   80.0010   -3.8460 C.ar   88  TYR88       0.0417
     86  CE2        8.3380   79.0700   -3.0330 C.ar   88  TYR88       0.0417
     87  CZ         9.3490   79.1070   -3.9780 C.ar   88  TYR88       0.1957
     88  OH         9.2920   78.2670   -5.0750 O.3    88  TYR88      -0.2866
     89  N          5.0350   85.0740   -0.0850 N.3    91  ARG91      -0.1245
     90  CA         4.6810   84.6540    1.2550 C.3    91  ARG91       0.1563
     91  C          5.8640   84.8720    2.1960 C.2    91  ARG91       0.2260
     92  O          6.9830   84.5030    1.8640 O.2    91  ARG91      -0.2867
     93  CB         4.2900   83.1950    1.2010 C.3    91  ARG91       0.0307
     94  CG         3.6920   82.6650    2.4580 C.3    91  ARG91       0.0489
     95  CD         4.4250   81.4260    2.8540 C.3    91  ARG91       0.2205
     96  NE         4.0350   80.2710    2.0690 N.pl3  91  ARG91      -0.0865
     97  CZ         3.0910   79.4110    2.4360 C.cat  91  ARG91       0.5346
     98  NH1        2.4370   79.5820    3.5670 N.pl3  91  ARG91       0.1354
     99  NH2        2.8230   78.3510    1.6900 N.pl3  91  ARG91       0.1354
    100  N          7.7550   84.0090    5.5900 N.3    93  THR93      -0.1218
    101  CA         7.8470   82.9340    6.5690 C.3    93  THR93       0.1862
    102  C          8.8810   83.3050    7.6430 C.2    93  THR93       0.2287
    103  O          9.8530   84.0120    7.3620 O.2    93  THR93      -0.2866
    104  CB         8.1940   81.6120    5.8880 C.3    93  THR93       0.1770
    105  OG1        7.0720   81.2190    5.1010 O.3    93  THR93      -0.2211
    106  CG2        8.4790   80.5040    6.9020 C.3    93  THR93       0.0375
    107  N         10.9240   81.3860   10.8260 N.3    95  VAL95      -0.1245
    108  CA        11.2060   80.1570   11.5730 C.3    95  VAL95       0.1561
    109  C         11.7940   80.6340   12.9100 C.2    95  VAL95       0.2260
    110  O         12.6450   81.5230   12.9490 O.2    95  VAL95      -0.2867
    111  CB        12.1640   79.2150   10.8110 C.3    95  VAL95       0.0252
    112  CG1       12.3520   77.9360   11.5680 C.3    95  VAL95       0.0019
    113  CG2       11.5710   78.8770    9.4630 C.3    95  VAL95       0.0019
    114  N         13.6190   79.0590   15.8560 N.3    97  PRO97      -0.2116
    115  CA        14.3110   77.9570   16.5420 C.3    97  PRO97       0.1372
    116  C         15.1120   78.3850   17.7770 C.2    97  PRO97       0.2244
    117  O         15.1790   79.5630   18.1450 O.2    97  PRO97      -0.2868
    118  CB        15.3170   77.4620   15.4760 C.3    97  PRO97       0.0268
    119  CG        15.1560   78.4030   14.2860 C.3    97  PRO97       0.0207
    120  CD        14.5040   79.6360   14.8310 C.3    97  PRO97       0.0892
    121  N         13.6120   73.0400   16.3420 N.3   116  PHE116     -0.1241
    122  CA        12.3800   73.7200   15.9840 C.3   116  PHE116      0.1605
    123  C         11.5440   72.6980   15.2610 C.2   116  PHE116      0.2264
    124  O         12.0930   71.7880   14.6400 O.2   116  PHE116     -0.2867
    125  CB        12.6350   74.9520   15.1140 C.3   116  PHE116      0.0534
    126  CG        13.0920   74.6330   13.7310 C.ar  116  PHE116     -0.0203
    127  CD1       14.4060   74.3120   13.4850 C.ar  116  PHE116     -0.0042
    128  CD2       12.1900   74.6120   12.6770 C.ar  116  PHE116     -0.0042
    129  CE1       14.8230   73.9650   12.2010 C.ar  116  PHE116     -0.0003
    130  CE2       12.5960   74.2660   11.3960 C.ar  116  PHE116     -0.0003
    131  CZ        13.9100   73.9420   11.1560 C.ar  116  PHE116     -0.0000
    132  N          7.2650   77.2340   12.7220 N.3   121  ILE121     -0.1245
    133  CA         7.3410   77.7640   11.3830 C.3   121  ILE121      0.1561
    134  C          6.0400   78.5500   11.2970 C.2   121  ILE121      0.2260
    135  O          4.9600   78.0100   11.5120 O.2   121  ILE121     -0.2867
    136  CB         7.4210   76.6210   10.3510 C.3   121  ILE121      0.0252
    137  CG1        8.7040   75.8230   10.5830 C.3   121  ILE121      0.0019
    138  CG2        7.4340   77.1780    8.9280 C.3   121  ILE121      0.0019
    139  CD1        8.6860   74.4490    9.9740 C.3   121  ILE121      0.0001
    140  N          4.1960   80.8990    8.7650 N.3   123  ALA123     -0.1245
    141  CA         4.0060   81.4860    7.4460 C.3   123  ALA123      0.1562
    142  C          2.5540   81.8390    7.2480 C.2   123  ALA123      0.2260
    143  O          1.6830   81.2180    7.8500 O.2   123  ALA123     -0.2867
    144  CB         4.3980   80.4920    6.3960 C.3   123  ALA123      0.0290
@<TRIPOS>BOND
     1    88    87    1
     2    42    41    1
     3    40    41    1
     4    40    39    1
     5    87    85   ar
     6    87    86   ar
     7    85    83   ar
     8    39    38    1
     9    86    84   ar
    10    83    82   ar
    11    37    36    2
    12    50    48    1
    13    38    35    1
    14    84    82   ar
    15    79    80    2
    16    79    78    1
    17    82    81    1
    18    36    35    1
    19    36    43   am
    20    35    34    1
    21    26    25    2
    22    78    81    1
    23    78    77    1
    24    27    25   am
    25    48    49    1
    26    48    47    1
    27    25    24    1
    28    43    44    1
    29    44    47    1
    30    44    45    1
    31    89    90    1
    32    21    24    1
    33    21    20    1
    34    21    22    1
    35    23    22    2
    36    45    46    2
    37    22    28   am
    38    93    90    1
    39    93    94    1
    40    90    91    1
    41    99    97    1
    42    92    91    2
    43    96    97    2
    44    96    95    1
    45    28    29    1
    46    97    98    1
    47    94    95    1
    48    31    30    2
    49    30    29    1
    50     9    10    1
    51    73    75   ar
    52    73    71   ar
    53    29    32    1
    54    12    11    2
    55    75    76   ar
    56    68    69    2
    57    68    67    1
    58    10    11    1
    59    10    13    1
    60    70    71    1
    61    70    67    1
    62    51    52    1
    63    71    72   ar
    64    67    66    1
    65    76    74   ar
    66    32    33    1
    67    58    56    1
    68    56    57    1
    69    56    55    1
    70   105   104    1
    71    13    14    1
    72    52    55    1
    73    52    53    1
    74    72    74   ar
    75   100   101    1
    76    15    14   ar
    77    15    17   ar
    78   104   101    1
    79   104   106    1
    80    54    53    2
    81    14    16   ar
    82   144   141    1
    83   101   102    1
    84    17    19   ar
    85    16    18   ar
    86   142   141    1
    87   142   143    2
    88   103   102    2
    89   141   140    1
    90    19    18   ar
    91    64    63    1
    92   138   136    1
    93     4     3    2
    94   113   111    1
    95    61    62    2
    96    61    60    1
    97    63    60    1
    98    63    65    1
    99   139   137    1
   100   136   137    1
   101   136   133    1
   102    60    59    1
   103     3     2    1
   104     5     6    1
   105     5     2    1
   106     8     6   ar
   107     6     7   ar
   108   111   112    1
   109   111   108    1
   110   107   108    1
   111   131   130   ar
   112   131   129   ar
   113   134   133    1
   114   134   135    2
   115   133   132    1
   116   130   128   ar
   117     2     1    1
   118   108   109    1
   119   129   127   ar
   120   128   126   ar
   121   109   110    2
   122   127   126   ar
   123   126   125    1
   124   119   120    1
   125   119   118    1
   126   124   123    2
   127   120   114    1
   128   125   122    1
   129   123   122    1
   130   118   115    1
   131   114   115    1
   132   122   121    1
   133   115   116    1
   134   116   117    2
