@<TRIPOS>MOLECULE
tmp/8cppA01.pdb
 129 119 0 0 0
SMALL
GASTEIGER

@<TRIPOS>ATOM
      1  N         40.5720   38.0070   18.0330 N.3    78  PHE78      -0.1241
      2  CA        41.6420   37.8030   18.9890 C.3    78  PHE78       0.1605
      3  C         41.2990   36.6140   19.8940 C.2    78  PHE78       0.2264
      4  O         40.1170   36.4330   20.2740 O.2    78  PHE78      -0.2867
      5  CB        41.9440   39.0420   19.8110 C.3    78  PHE78       0.0534
      6  CG        42.7560   40.1410   19.2170 C.ar   78  PHE78      -0.0203
      7  CD1       43.4820   40.9600   20.1240 C.ar   78  PHE78      -0.0042
      8  CD2       42.9350   40.3320   17.8580 C.ar   78  PHE78      -0.0042
      9  CE1       44.2530   42.0060   19.6550 C.ar   78  PHE78      -0.0003
     10  CE2       43.8080   41.3090   17.3660 C.ar   78  PHE78      -0.0003
     11  CZ        44.4340   42.1690   18.3030 C.ar   78  PHE78      -0.0000
     12  N         37.0910   43.2550   21.6370 N.3    87  TYR87      -0.1241
     13  CA        37.6500   43.8280   20.4100 C.3    87  TYR87       0.1605
     14  C         36.5230   44.4350   19.5700 C.2    87  TYR87       0.2264
     15  O         35.6730   43.6520   19.0570 O.2    87  TYR87      -0.2867
     16  CB        38.3640   42.6910   19.6040 C.3    87  TYR87       0.0534
     17  CG        39.1890   43.1690   18.4370 C.ar   87  TYR87      -0.0201
     18  CD1       38.6060   43.5050   17.2170 C.ar   87  TYR87      -0.0009
     19  CD2       40.5870   43.3160   18.5610 C.ar   87  TYR87      -0.0009
     20  CE1       39.3710   43.8920   16.1120 C.ar   87  TYR87       0.0417
     21  CE2       41.3630   43.7520   17.5000 C.ar   87  TYR87       0.0417
     22  CZ        40.7730   43.9850   16.2730 C.ar   87  TYR87       0.1957
     23  OH        41.5350   44.4700   15.2530 O.3    87  TYR87      -0.2866
     24  N         37.4850   47.1780   17.1330 N.3    89  PHE89      -0.1241
     25  CA        38.1240   48.0160   16.1080 C.3    89  PHE89       0.1605
     26  C         37.4170   47.9120   14.7540 C.2    89  PHE89       0.2264
     27  O         37.0540   46.8500   14.2750 O.2    89  PHE89      -0.2867
     28  CB        39.6290   47.7890   15.9600 C.3    89  PHE89       0.0534
     29  CG        40.4380   48.0480   17.1920 C.ar   89  PHE89      -0.0203
     30  CD1       40.2410   49.1860   17.9610 C.ar   89  PHE89      -0.0042
     31  CD2       41.5160   47.2270   17.4810 C.ar   89  PHE89      -0.0042
     32  CE1       40.9590   49.4120   19.1380 C.ar   89  PHE89      -0.0003
     33  CE2       42.2640   47.4210   18.6540 C.ar   89  PHE89      -0.0003
     34  CZ        41.9620   48.5160   19.4710 C.ar   89  PHE89      -0.0000
     35  N         38.3690   46.1130   11.2970 N.3    92  THR92      -0.1218
     36  CA        38.8100   44.7620   11.5750 C.3    92  THR92       0.1862
     37  C         37.7900   43.8730   12.2050 C.2    92  THR92       0.2287
     38  O         37.7570   42.6440   11.8870 O.2    92  THR92      -0.2866
     39  CB        40.2700   44.6570   12.1360 C.3    92  THR92       0.1770
     40  OG1       40.2780   45.4120   13.3820 O.3    92  THR92      -0.2211
     41  CG2       41.4000   45.2450   11.2300 C.3    92  THR92       0.0375
     42  N         48.7070   43.3870   22.1090 N.3   176  THR176     -0.1218
     43  CA        49.3060   42.3380   21.2430 C.3   176  THR176      0.1862
     44  C         50.1140   41.3310   22.0210 C.2   176  THR176      0.2287
     45  O         50.1240   40.1350   21.7430 O.2   176  THR176     -0.2866
     46  CB        50.1370   43.0790   20.1480 C.3   176  THR176      0.1770
     47  OG1       51.0770   43.9290   20.9100 O.3   176  THR176     -0.2211
     48  CG2       49.2750   43.8820   19.1690 C.3   176  THR176      0.0375
     49  N         42.3320   51.4330   16.0490 N.3   235  LEU235     -0.1245
     50  CA        43.0660   50.4510   15.2310 C.3   235  LEU235      0.1561
     51  C         44.3490   51.0710   14.6420 C.2   235  LEU235      0.2260
     52  O         45.3410   50.3750   14.5240 O.2   235  LEU235     -0.2867
     53  CB        42.1490   49.9140   14.1410 C.3   235  LEU235      0.0270
     54  CG        42.7630   48.8670   13.2170 C.3   235  LEU235      0.0019
     55  CD1       42.9910   47.5820   13.9910 C.3   235  LEU235      0.0001
     56  CD2       41.8410   48.6400   12.0400 C.3   235  LEU235      0.0001
     57  N         47.2970   51.1810   16.9600 N.3   238  VAL238     -0.1231
     58  CA        47.9470   49.8740   17.1640 C.3   238  VAL238      0.1692
     59  C         48.7980   49.5160   15.9510 C.2   238  VAL238      0.2592
     60  O         49.9500   49.0380   16.1280 O.2   238  VAL238     -0.2718
     61  CB        46.9140   48.8160   17.5900 C.3   238  VAL238      0.0266
     62  CG1       47.4750   47.4470   17.8590 C.3   238  VAL238      0.0020
     63  CG2       46.1520   49.2450   18.8400 C.3   238  VAL238      0.0020
     64  N         48.2510   49.7750   14.7760 N.am  239  GLY239     -0.1957
     65  CA        48.9850   49.4950   13.5380 C.3   239  GLY239      0.1869
     66  C         50.2250   50.3590   13.4570 C.2   239  GLY239      0.2309
     67  O         51.3340   49.8530   13.1570 O.2   239  GLY239     -0.2863
     68  N         53.5690   47.5350   14.7330 N.3   243  THR243     -0.1218
     69  CA        53.8590   46.6200   13.6210 C.3   243  THR243      0.1862
     70  C         55.3000   46.7760   13.0710 C.2   243  THR243      0.2287
     71  O         56.1270   45.9180   13.2920 O.2   243  THR243     -0.2866
     72  CB        52.7480   46.6830   12.5190 C.3   243  THR243      0.1770
     73  OG1       52.7080   48.0890   12.1150 O.3   243  THR243     -0.2211
     74  CG2       51.3410   46.2780   13.0460 C.3   243  THR243      0.0375
     75  N         52.6370   38.4290   12.5790 N.3   286  VAL286     -0.1245
     76  CA        51.2450   38.6340   13.0100 C.3   286  VAL286      0.1561
     77  C         50.5230   37.2750   13.0620 C.2   286  VAL286      0.2260
     78  O         50.6780   36.4530   12.1830 O.2   286  VAL286     -0.2867
     79  CB        50.5120   39.6240   12.0480 C.3   286  VAL286      0.0252
     80  CG1       49.0110   39.8390   12.4820 C.3   286  VAL286      0.0019
     81  CG2       51.1300   41.0140   12.2790 C.3   286  VAL286      0.0019
     82  N         46.5170   36.4630   14.0030 N.3   288  ASP288     -0.1239
     83  CA        45.1200   36.6090   14.6500 C.3   288  ASP288      0.1674
     84  C         44.2540   35.5040   14.0800 C.2   288  ASP288      0.2266
     85  O         44.7610   34.6000   13.4190 O.2   288  ASP288     -0.2867
     86  CB        44.6430   38.0100   14.6800 C.3   288  ASP288      0.1410
     87  CG        44.1720   38.5610   13.3880 C.2   288  ASP288      0.3668
     88  OD1       44.1970   37.8620   12.3700 O.co2 288  ASP288     -0.2456
     89  OD2       43.6890   39.7090   13.3640 O.co2 288  ASP288     -0.2456
     90  N         49.0120   34.4950   10.1670 N.3   313  GLN313     -0.1245
     91  CA        49.4910   35.0550    8.8790 C.3   313  GLN313      0.1566
     92  C         50.9940   34.7310    8.6900 C.2   313  GLN313      0.2260
     93  O         51.4680   34.5360    7.5760 O.2   313  GLN313     -0.2867
     94  CB        49.2690   36.5830    8.8700 C.3   313  GLN313      0.0367
     95  CG        47.8000   36.9430    8.7400 C.3   313  GLN313      0.0905
     96  CD        47.0240   37.1050    9.9870 C.2   313  GLN313      0.2608
     97  OE1       47.3910   36.6850   11.1080 O.2   313  GLN313     -0.2717
     98  NE2       45.8230   37.7090    9.8280 N.am  313  GLN313     -0.0878
     99  N         40.3810   41.7730    4.5100 N.3   346  HIS346     -0.1241
    100  CA        41.0740   42.5640    5.5170 C.3   346  HIS346      0.1621
    101  C         42.5190   42.8800    5.1860 C.2   346  HIS346      0.2264
    102  O         43.2060   43.4260    6.0810 O.2   346  HIS346     -0.2867
    103  CB        40.8730   42.0100    6.8900 C.3   346  HIS346      0.0745
    104  CG        39.4410   42.1640    7.3360 C.ar  346  HIS346      0.0817
    105  ND1       38.9860   43.3350    7.8990 N.ar  346  HIS346     -0.2268
    106  CD2       38.3750   41.3270    7.2240 C.ar  346  HIS346      0.1154
    107  CE1       37.7550   43.1570    8.2910 C.ar  346  HIS346      0.1986
    108  NE2       37.3610   41.9660    7.9320 N.ar  346  HIS346     -0.2212
    109  N         45.9950   44.3280    4.6960 N.3   348  CYS348     -0.1235
    110  CA        46.5890   45.4650    5.2880 C.3   348  CYS348      0.1677
    111  C         46.5910   46.7010    4.4280 C.2   348  CYS348      0.2270
    112  O         47.2730   46.7520    3.3660 O.2   348  CYS348     -0.2867
    113  CB        48.1250   45.2000    5.6170 C.3   348  CYS348      0.0956
    114  SG        48.6770   46.5070    6.7180 S.3   348  CYS348     -0.0801
    115  N         50.0060   38.3810   19.5540 N.3   386  ILE386     -0.1231
    116  CA        49.2540   38.7290   18.3080 C.3   386  ILE386      0.1692
    117  C         50.2860   39.2880   17.3400 C.2   386  ILE386      0.2591
    118  O         50.1410   39.1830   16.1040 O.2   386  ILE386     -0.2718
    119  CB        48.0890   39.7470   18.5630 C.3   386  ILE386      0.0266
    120  CG1       47.0600   39.2370   19.6120 C.3   386  ILE386      0.0019
    121  CG2       47.3330   40.1440   17.2550 C.3   386  ILE386      0.0020
    122  CD1       46.0620   38.1450   19.1620 C.3   386  ILE386      0.0001
    123  N         51.1340   40.1630   17.8950 N.am  387  VAL387     -0.1980
    124  CA        52.2590   40.7110   17.0660 C.3   387  VAL387      0.1595
    125  C         53.5220   40.2490   17.8240 C.2   387  VAL387      0.2287
    126  O         53.5490   40.3990   19.0200 O.2   387  VAL387     -0.2864
    127  CB        52.1560   42.1980   16.8130 C.3   387  VAL387      0.0276
    128  CG1       53.3480   42.6500   15.8740 C.3   387  VAL387      0.0022
    129  CG2       50.8430   42.6230   16.1180 C.3   387  VAL387      0.0022
@<TRIPOS>BOND
     1   112   111    2
     2   111   110    1
     3    99   100    1
     4   109   110    1
     5   101   100    1
     6   101   102    2
     7   110   113    1
     8   100   103    1
     9   113   114    1
    10   103   104    1
    11   106   104   ar
    12   106   108   ar
    13   104   105   ar
    14    93    92    2
    15   105   107   ar
    16   108   107   ar
    17    92    91    1
    18    95    94    1
    19    95    96    1
    20    94    91    1
    21    91    90    1
    22    98    96   am
    23    96    97    2
    24    41    39    1
    25    35    36    1
    26    36    39    1
    27    36    37    1
    28    38    37    2
    29    56    54    1
    30    79    81    1
    31    79    80    1
    32    79    76    1
    33    73    72    1
    34    39    40    1
    35    78    77    2
    36    88    87   ar
    37    72    74    1
    38    72    69    1
    39    75    76    1
    40    76    77    1
    41    70    71    2
    42    70    69    1
    43    67    66    2
    44    54    55    1
    45    54    53    1
    46    89    87   ar
    47    87    86    1
    48    85    84    2
    49    66    65    1
    50    65    64    1
    51    69    68    1
    52    82    83    1
    53    84    83    1
    54    53    50    1
    55    27    26    2
    56    52    51    2
    57    51    50    1
    58    83    86    1
    59    26    25    1
    60    64    59   am
    61    50    49    1
    62    23    22    1
    63   128   127    1
    64    59    60    2
    65    59    58    1
    66    28    25    1
    67    28    29    1
    68   118   117    2
    69    25    24    1
    70    20    22   ar
    71    20    18   ar
    72   129   127    1
    73    22    21   ar
    74   127   124    1
    75    57    58    1
    76   124   125    1
    77   124   123    1
    78    58    61    1
    79    29    31   ar
    80    29    30   ar
    81    18    17   ar
    82   121   119    1
    83   117   123   am
    84   117   116    1
    85    10     8   ar
    86    10    11   ar
    87    31    33   ar
    88    21    19   ar
    89    61    62    1
    90    61    63    1
    91   125   126    2
    92     8     6   ar
    93    30    32   ar
    94     1     2    1
    95    11     9   ar
    96   116   119    1
    97   116   115    1
    98    17    19   ar
    99    17    16    1
   100   119   120    1
   101    33    34   ar
   102     2     5    1
   103     2     3    1
   104    15    14    2
   105    32    34   ar
   106   122   120    1
   107    48    46    1
   108     6     5    1
   109     6     7   ar
   110    14    13    1
   111    16    13    1
   112     9     7   ar
   113     3     4    2
   114    46    47    1
   115    46    43    1
   116    13    12    1
   117    43    44    1
   118    43    42    1
   119    45    44    2
