@<TRIPOS>MOLECULE
tmp/8estA00.pdb
 138 131 0 0 0
SMALL
GASTEIGER

@<TRIPOS>ATOM
      1  N         -0.5990   25.8690   32.4000 N.3    29  THR29      -0.1203
      2  CA        -1.5850   24.8400   32.7290 C.3    29  THR29       0.1994
      3  C         -2.3440   25.1060   34.0150 C.2    29  THR29       0.2618
      4  O         -3.4240   24.5050   34.1770 O.2    29  THR29      -0.2717
      5  CB        -1.0470   23.3890   32.6330 C.3    29  THR29       0.1784
      6  OG1       -2.0740   22.4050   32.7640 O.3    29  THR29      -0.2211
      7  CG2        0.2000   23.0730   33.4950 C.3    29  THR29       0.0376
      8  N         -1.6480   25.8670   34.9000 N.am   30  CYS30      -0.1969
      9  CA        -2.1280   26.0240   36.2560 C.3    30  CYS30       0.1712
     10  C         -1.6330   27.3030   36.8550 C.2    30  CYS30       0.2296
     11  O         -0.4550   27.5850   36.6240 O.2    30  CYS30      -0.2864
     12  CB        -1.6540   24.8310   37.1440 C.3    30  CYS30       0.0983
     13  SG        -2.8830   23.4900   37.1830 S.3    30  CYS30      -0.0798
     14  N         -1.9660   22.8400   43.1450 N.3    43  ALA43      -0.1245
     15  CA        -2.9080   21.7360   43.3220 C.3    43  ALA43       0.1562
     16  C         -2.2950   20.4400   42.7960 C.2    43  ALA43       0.2260
     17  O         -1.5670   20.4820   41.8030 O.2    43  ALA43      -0.2867
     18  CB        -4.2360   22.0850   42.5900 C.3    43  ALA43       0.0290
     19  N         -3.8620   17.9800   41.3150 N.3    45  HIS45      -0.1226
     20  CA        -4.5070   17.8690   40.0060 C.3    45  HIS45       0.1752
     21  C         -3.6340   18.4270   38.8630 C.2    45  HIS45       0.2596
     22  O         -3.6190   17.8650   37.7540 O.2    45  HIS45      -0.2718
     23  CB        -5.8540   18.6030   40.0370 C.3    45  HIS45       0.0759
     24  CG        -6.8280   17.9470   39.0660 C.ar   45  HIS45       0.0818
     25  ND1       -8.1380   18.2910   39.0140 N.ar   45  HIS45      -0.2268
     26  CD2       -6.6540   16.8900   38.1790 C.ar   45  HIS45       0.1154
     27  CE1       -8.7860   17.4370   38.1700 C.ar   45  HIS45       0.1986
     28  NE2       -7.8600   16.5930   37.6400 N.ar   45  HIS45      -0.2212
     29  N         -2.8340   19.4680   39.1630 N.am   46  CYS46      -0.1970
     30  CA        -1.9340   20.0800   38.1930 C.3    46  CYS46       0.1712
     31  C         -0.7390   19.2130   37.7970 C.2    46  CYS46       0.2296
     32  O         -0.2660   19.3210   36.6520 O.2    46  CYS46      -0.2864
     33  CB        -1.3820   21.4220   38.6690 C.3    46  CYS46       0.0983
     34  SG        -2.6810   22.6180   39.0410 S.3    46  CYS46      -0.0798
     35  N         -0.1920   14.5700   35.4160 N.3    49  ARG49      -0.1245
     36  CA         0.5290   14.1160   34.2270 C.3    49  ARG49       0.1563
     37  C          2.0450   14.2860   34.2710 C.2    49  ARG49       0.2260
     38  O          2.5910   15.2030   34.9200 O.2    49  ARG49      -0.2867
     39  CB        -0.0740   14.7950   32.9840 C.3    49  ARG49       0.0307
     40  CG        -1.5940   14.5290   32.9040 C.3    49  ARG49       0.0489
     41  CD        -1.9820   13.0310   32.8220 C.3    49  ARG49       0.2205
     42  NE        -3.4570   12.8690   32.9590 N.pl3  49  ARG49      -0.0865
     43  CZ        -4.2370   12.2010   32.0880 C.cat  49  ARG49       0.5346
     44  NH1       -3.6950   11.6220   31.0010 N.pl3  49  ARG49       0.1354
     45  NH2       -5.5590   12.0980   32.3160 N.pl3  49  ARG49       0.1354
     46  N          4.8860   15.2860   32.9470 N.3    51  LEU51      -0.1245
     47  CA         5.2130   16.3230   32.0180 C.3    51  LEU51       0.1561
     48  C          6.5370   16.9300   32.4440 C.2    51  LEU51       0.2260
     49  O          6.9150   16.7640   33.6180 O.2    51  LEU51      -0.2867
     50  CB         4.0640   17.3580   32.1120 C.3    51  LEU51       0.0270
     51  CG         3.0070   17.2280   30.9960 C.3    51  LEU51       0.0019
     52  CD1        3.1370   15.9720   30.0840 C.3    51  LEU51       0.0001
     53  CD2        1.5730   17.5200   31.4590 C.3    51  LEU51       0.0001
     54  N          7.8480   20.2590   33.6750 N.3    53  PHE53      -0.1241
     55  CA         7.1990   21.4370   34.2400 C.3    53  PHE53       0.1605
     56  C          8.1530   22.5970   34.3730 C.2    53  PHE53       0.2264
     57  O          9.2820   22.3210   34.7730 O.2    53  PHE53      -0.2867
     58  CB         6.5280   21.1870   35.5780 C.3    53  PHE53       0.0534
     59  CG         5.3010   20.3550   35.4130 C.ar   53  PHE53      -0.0203
     60  CD1        4.1710   20.9030   34.8390 C.ar   53  PHE53      -0.0042
     61  CD2        5.3280   19.0230   35.8140 C.ar   53  PHE53      -0.0042
     62  CE1        3.0220   20.1180   34.7190 C.ar   53  PHE53      -0.0003
     63  CE2        4.1740   18.2380   35.7110 C.ar   53  PHE53      -0.0003
     64  CZ         3.0060   18.7870   35.1540 C.ar   53  PHE53      -0.0000
     65  N        -11.5470   13.7730   43.4490 N.3    88  VAL88      -0.1245
     66  CA       -11.1450   15.1480   43.8070 C.3    88  VAL88       0.1561
     67  C        -12.0250   15.6660   44.9470 C.2    88  VAL88       0.2260
     68  O        -11.5570   16.4910   45.7760 O.2    88  VAL88      -0.2867
     69  CB       -11.2080   16.0560   42.5520 C.3    88  VAL88       0.0252
     70  CG1      -12.4920   15.8360   41.7450 C.3    88  VAL88       0.0019
     71  CG2      -10.9240   17.5660   42.8040 C.3    88  VAL88       0.0019
     72  N        -13.4980   31.1110   39.5020 N.3   183  GLY183     -0.1210
     73  CA       -12.3910   30.5010   38.7950 C.3   183  GLY183      0.1956
     74  C        -12.9110   29.6530   37.6430 C.2   183  GLY183      0.2612
     75  O        -14.1140   29.3760   37.4950 O.2   183  GLY183     -0.2717
     76  N        -12.0020   29.2390   36.7990 N.am  184  CYS184     -0.1956
     77  CA       -12.4180   28.4200   35.6510 C.3   184  CYS184      0.1843
     78  C        -11.1710   27.6590   35.1890 C.2   184  CYS184      0.2625
     79  O        -10.1370   27.7600   35.8810 O.2   184  CYS184     -0.2714
     80  CB       -12.9310   29.4010   34.5560 C.3   184  CYS184      0.0997
     81  SG       -13.8720   28.5580   33.2670 S.3   184  CYS184     -0.0797
     82  N        -11.2190   26.8620   34.1130 N.am  185  GLN185     -0.1963
     83  CA       -10.0690   26.0060   33.7390 C.3   185  GLN185      0.1733
     84  C         -8.7610   26.7380   33.5180 C.2   185  GLN185      0.2616
     85  O         -8.8250   27.8650   33.0210 O.2   185  GLN185     -0.2715
     86  CB       -10.3610   25.0990   32.5320 C.3   185  GLN185      0.0408
     87  CG       -11.2350   23.8960   32.9410 C.3   185  GLN185      0.0908
     88  CD       -12.6430   24.3140   33.3490 C.2   185  GLN185      0.2608
     89  OE1      -13.1530   25.3280   32.8490 O.2   185  GLN185     -0.2717
     90  NE2      -13.3540   23.2930   33.8330 N.am  185  GLN185     -0.0878
     91  N         -7.6670   26.2520   34.1550 N.am  186  GLY186     -0.1955
     92  CA        -6.3690   26.9440   34.0690 C.3   186  GLY186      0.1869
     93  C         -6.0820   27.8720   35.2360 C.2   186  GLY186      0.2309
     94  O         -4.9450   28.3540   35.3110 O.2   186  GLY186     -0.2863
     95  N         -6.8680   26.4920   38.3680 N.3   188  SER188     -0.1217
     96  CA        -6.6030   25.6600   39.5500 C.3   188  SER188      0.1889
     97  C         -5.1370   25.4840   39.9190 C.2   188  SER188      0.2288
     98  O         -4.3040   25.7930   39.0660 O.2   188  SER188     -0.2866
     99  CB        -7.4990   24.4610   39.7940 C.3   188  SER188      0.2089
    100  OG        -7.4780   23.5740   38.6720 O.3   188  SER188     -0.2183
    101  N         -7.0250   26.9520   44.5980 N.3   206  THR206     -0.1203
    102  CA        -8.1050   26.6660   43.6670 C.3   206  THR206      0.1994
    103  C         -8.1220   25.2040   43.2180 C.2   206  THR206      0.2619
    104  O         -7.1160   24.6710   42.7400 O.2   206  THR206     -0.2717
    105  CB        -8.0530   27.6610   42.4220 C.3   206  THR206      0.1784
    106  OG1       -7.8290   29.0210   42.8570 O.3   206  THR206     -0.2211
    107  CG2       -9.3660   27.6210   41.5790 C.3   206  THR206      0.0376
    108  N         -9.2180   24.5390   43.4670 N.am  207  SER207     -0.1937
    109  CA        -9.3890   23.1200   43.1930 C.3   207  SER207      0.2055
    110  C        -10.4120   22.8070   42.0930 C.2   207  SER207      0.2643
    111  O        -10.0150   22.1660   41.1090 O.2   207  SER207     -0.2714
    112  CB        -9.7350   22.4290   44.5250 C.3   207  SER207      0.2130
    113  OG        -9.6490   21.0140   44.3060 O.3   207  SER207     -0.2179
    114  N        -11.6950   23.1930   42.2220 N.am  208  PHE208     -0.1959
    115  CA       -12.7080   22.8260   41.2160 C.3   208  PHE208      0.1771
    116  C        -13.8720   23.7810   41.1100 C.2   208  PHE208      0.2619
    117  O        -14.0320   24.6630   41.9710 O.2   208  PHE208     -0.2715
    118  CB       -13.1900   21.3850   41.3110 C.3   208  PHE208      0.0574
    119  CG       -13.7680   21.0500   42.6880 C.ar  208  PHE208     -0.0200
    120  CD1      -12.9710   20.5430   43.6820 C.ar  208  PHE208     -0.0042
    121  CD2      -15.1330   21.1490   42.9080 C.ar  208  PHE208     -0.0042
    122  CE1      -13.5560   20.1170   44.9140 C.ar  208  PHE208     -0.0003
    123  CE2      -15.7200   20.7460   44.1050 C.ar  208  PHE208     -0.0003
    124  CZ       -14.9440   20.2180   45.1220 C.ar  208  PHE208     -0.0000
    125  N        -14.6650   23.5260   40.0400 N.am  209  VAL209     -0.1977
    126  CA       -15.9440   24.1420   39.7840 C.3   209  VAL209      0.1596
    127  C        -16.9190   23.0830   39.2990 C.2   209  VAL209      0.2287
    128  O        -16.5420   21.8960   39.2670 O.2   209  VAL209     -0.2864
    129  CB       -15.8040   25.3440   38.7620 C.3   209  VAL209      0.0276
    130  CG1      -15.0820   26.6080   39.3450 C.3   209  VAL209      0.0022
    131  CG2      -15.2030   24.8800   37.4300 C.3   209  VAL209      0.0022
    132  N        -16.7610   28.5230   43.6960 N.3   221  THR221     -0.1218
    133  CA       -15.4620   27.9280   43.4110 C.3   221  THR221      0.1862
    134  C        -14.9560   27.2830   44.7160 C.2   221  THR221      0.2287
    135  O        -15.1560   27.8720   45.8190 O.2   221  THR221     -0.2866
    136  CB       -14.4380   28.9570   42.8430 C.3   221  THR221      0.1770
    137  OG1      -15.0280   29.6980   41.7380 O.3   221  THR221     -0.2211
    138  CG2      -13.0770   28.3420   42.4230 C.3   221  THR221      0.0375
@<TRIPOS>BOND
     1    52    51    1
     2    51    53    1
     3    51    50    1
     4    44    43    1
     5    47    50    1
     6    47    48    1
     7    47    46    1
     8    43    45    1
     9    43    42    2
    10     1     2    1
    11    48    49    2
    12    86    87    1
    13    86    83    1
    14     5     2    1
    15     5     6    1
    16     5     7    1
    17     2     3    1
    18    41    40    1
    19    41    42    1
    20    89    88    2
    21    40    39    1
    22    87    88    1
    23    39    36    1
    24    85    84    2
    25    81    80    1
    26    88    90   am
    27    84    83    1
    28    84    91   am
    29    54    55    1
    30    83    82    1
    31     3     4    2
    32     3     8   am
    33    92    91    1
    34    92    93    1
    35    82    78   am
    36    36    37    1
    37    36    35    1
    38    55    56    1
    39    55    58    1
    40    37    38    2
    41    56    57    2
    42    80    77    1
    43    62    60   ar
    44    62    64   ar
    45    60    59   ar
    46     8     9    1
    47    64    63   ar
    48    78    77    1
    49    78    79    2
    50    93    94    2
    51    59    58    1
    52    59    61   ar
    53    77    76    1
    54    63    61   ar
    55     9    10    1
    56     9    12    1
    57    11    10    2
    58    32    31    2
    59    76    74   am
    60    12    13    1
    61    13    34    1
    62   131   129    1
    63    75    74    2
    64    28    27   ar
    65    28    26   ar
    66    74    73    1
    67    22    21    2
    68    31    30    1
    69    27    25   ar
    70    26    24   ar
    71    30    33    1
    72    30    29    1
    73    95    96    1
    74    33    34    1
    75   100    99    1
    76   129   130    1
    77   129   126    1
    78    73    72    1
    79    21    29   am
    80    21    20    1
    81    25    24   ar
    82    98    97    2
    83    24    23    1
    84   128   127    2
    85   127   126    1
    86    96    99    1
    87    96    97    1
    88   126   125    1
    89    20    23    1
    90    20    19    1
    91   125   116   am
    92   111   110    2
    93   116   115    1
    94   116   117    2
    95   115   118    1
    96   115   114    1
    97   118   119    1
    98   107   105    1
    99   137   136    1
   100    70    69    1
   101    17    16    2
   102   110   114   am
   103   110   109    1
   104   105   106    1
   105   105   102    1
   106   138   136    1
   107    69    71    1
   108    69    66    1
   109    18    15    1
   110   119   121   ar
   111   119   120   ar
   112   104   103    2
   113    16    15    1
   114   136   133    1
   115   121   123   ar
   116    14    15    1
   117   109   108    1
   118   109   112    1
   119   103   108   am
   120   103   102    1
   121   133   132    1
   122   133   134    1
   123    65    66    1
   124   102   101    1
   125   120   122   ar
   126    66    67    1
   127   123   124   ar
   128   113   112    1
   129   134   135    2
   130   122   124   ar
   131    67    68    2
