@<TRIPOS>MOLECULE
tmp/8gchB00.pdb
 158 158 0 0 0
SMALL
GASTEIGER

@<TRIPOS>ATOM
      1  N         10.7760    3.8660   41.8310 N.3     5  GLU5       -0.1231
      2  CA         9.3810    3.5390   41.5400 C.3     5  GLU5        0.1699
      3  C          9.3150    3.3690   40.0370 C.2     5  GLU5        0.2592
      4  O         10.1190    3.9570   39.2840 O.2     5  GLU5       -0.2718
      5  CB         8.4140    4.6680   41.9100 C.3     5  GLU5        0.0402
      6  CG         8.6320    5.9660   41.1210 C.3     5  GLU5        0.1161
      7  CD         7.7730    7.1270   41.4910 C.2     5  GLU5        0.3649
      8  OE1        6.8340    6.7860   42.2490 O.co2   5  GLU5       -0.2457
      9  OE2        7.9220    8.2870   41.1340 O.co2   5  GLU5       -0.2457
     10  N          8.3570    2.5660   39.6500 N.am    6  GLU6       -0.1966
     11  CA         8.1260    2.2690   38.2410 C.3     6  GLU6        0.1733
     12  C          7.6530    3.5390   37.5390 C.2     6  GLU6        0.2616
     13  O          6.8050    4.2790   38.0640 O.2     6  GLU6       -0.2715
     14  CB         7.0490    1.2120   38.1240 C.3     6  GLU6        0.0429
     15  CG         7.0680    0.2840   36.9200 C.3     6  GLU6        0.1163
     16  CD         5.7630   -0.5170   36.9160 C.2     6  GLU6        0.3649
     17  OE1        5.9200   -1.5490   37.6000 O.co2   6  GLU6       -0.2457
     18  OE2        4.7770   -0.1110   36.3550 O.co2   6  GLU6       -0.2457
     19  N          8.2400    3.7640   36.3710 N.am    7  ALA7       -0.1963
     20  CA         7.8840    4.9610   35.5930 C.3     7  ALA7        0.1728
     21  C          6.6240    4.7200   34.7490 C.2     7  ALA7        0.2616
     22  O          6.3360    3.5450   34.4570 O.2     7  ALA7       -0.2715
     23  CB         9.0200    5.3410   34.6340 C.3     7  ALA7        0.0334
     24  N          5.9780    5.8080   34.3560 N.am    8  VAL8       -0.1964
     25  CA         4.8020    5.7220   33.4600 C.3     8  VAL8        0.1712
     26  C          5.4510    5.2340   32.1480 C.2     8  VAL8        0.2458
     27  O          6.4580    5.8260   31.7230 O.2     8  VAL8       -0.2730
     28  CB         4.1050    7.0680   33.1990 C.3     8  VAL8        0.0289
     29  CG1        2.9250    6.9280   32.2410 C.3     8  VAL8        0.0023
     30  CG2        3.6990    7.7950   34.4790 C.3     8  VAL8        0.0023
     31  N          4.8710    4.2330   31.5580 N.am    9  PRO9       -0.2716
     32  CA         5.4510    3.7010   30.3020 C.3     9  PRO9        0.1536
     33  C          5.5960    4.8240   29.2990 C.2     9  PRO9        0.2599
     34  O          4.7090    5.6410   29.0280 O.2     9  PRO9       -0.2715
     35  CB         4.5630    2.5280   29.9500 C.3     9  PRO9        0.0310
     36  CG         3.9820    2.1060   31.3290 C.3     9  PRO9        0.0237
     37  CD         3.6820    3.4740   31.9490 C.3     9  PRO9        0.0939
     38  N          6.8030    4.8650   28.7260 N.am   10  GLY10      -0.1941
     39  CA         7.1930    5.8190   27.7170 C.3    10  GLY10       0.2014
     40  C          7.3320    7.2630   28.1340 C.2    10  GLY10       0.2640
     41  O          7.4580    8.0860   27.1900 O.2    10  GLY10      -0.2714
     42  N          7.3380    7.5760   29.4150 N.am   11  SER11      -0.1935
     43  CA         7.4390    8.9570   29.8950 C.3    11  SER11       0.2055
     44  C          8.8580    9.5230   29.9220 C.2    11  SER11       0.2643
     45  O          8.9990   10.7330   30.2180 O.2    11  SER11      -0.2714
     46  CB         6.7590    9.1190   31.2460 C.3    11  SER11       0.2130
     47  OG         7.4140    8.3990   32.2700 O.3    11  SER11      -0.2179
     48  N          9.8600    8.7230   29.6790 N.am   12  TRP12      -0.1960
     49  CA        11.2770    9.1110   29.6410 C.3    12  TRP12       0.1756
     50  C         11.7500    8.6150   28.2580 C.2    12  TRP12       0.2462
     51  O         12.5500    7.6950   28.1840 O.2    12  TRP12      -0.2730
     52  CB        12.0790    8.5260   30.8060 C.3    12  TRP12       0.0590
     53  CG        11.5290    8.8220   32.1470 C.ar   12  TRP12       0.0006
     54  CD1       10.9650    7.9240   33.0380 C.ar   12  TRP12       0.0946
     55  CD2       11.4730   10.0960   32.8070 C.ar   12  TRP12       0.0152
     56  NE1       10.5960    8.5560   34.1780 N.ar   12  TRP12      -0.2442
     57  CE2       10.8810    9.8980   34.0670 C.ar   12  TRP12       0.0810
     58  CE3       11.8370   11.3890   32.4360 C.ar   12  TRP12       0.0012
     59  CZ2       10.6660   10.9230   34.9670 C.ar   12  TRP12       0.0191
     60  CZ3       11.6380   12.4170   33.3280 C.ar   12  TRP12       0.0001
     61  CH2       11.0600   12.2070   34.5850 C.ar   12  TRP12       0.0015
     62  N         11.1960    9.2710   27.2540 N.am   13  PRO13      -0.2716
     63  CA        11.4440    8.9450   25.8430 C.3    13  PRO13       0.1536
     64  C         12.8560    8.9330   25.3530 C.2    13  PRO13       0.2598
     65  O         13.1450    8.2880   24.2850 O.2    13  PRO13      -0.2715
     66  CB        10.5110    9.9120   25.0640 C.3    13  PRO13       0.0310
     67  CG        10.3220   11.0610   26.0300 C.3    13  PRO13       0.0237
     68  CD        10.2390   10.3880   27.3950 C.3    13  PRO13       0.0939
     69  N         13.7730    9.5960   26.0250 N.am   14  TRP14      -0.1974
     70  CA        15.1970    9.6430   25.5820 C.3    14  TRP14       0.1640
     71  C         15.9630    8.4410   26.1580 C.2    14  TRP14       0.2290
     72  O         17.0630    8.1430   25.6830 O.2    14  TRP14      -0.2864
     73  CB        15.8470   10.9660   25.9810 C.3    14  TRP14       0.0576
     74  CG        15.4980   11.3950   27.3630 C.ar   14  TRP14       0.0006
     75  CD1       16.0670   10.9630   28.5310 C.ar   14  TRP14       0.0946
     76  CD2       14.4710   12.3200   27.7350 C.ar   14  TRP14       0.0152
     77  NE1       15.4730   11.5740   29.6170 N.ar   14  TRP14      -0.2442
     78  CE2       14.5020   12.4310   29.1340 C.ar   14  TRP14       0.0810
     79  CE3       13.5720   13.0910   26.9860 C.ar   14  TRP14       0.0012
     80  CZ2       13.6190   13.2660   29.8140 C.ar   14  TRP14       0.0191
     81  CZ3       12.6870   13.9180   27.6700 C.ar   14  TRP14       0.0001
     82  CH2       12.7220   13.9820   29.0670 C.ar   14  TRP14       0.0015
     83  N         19.7810   12.3320   22.2020 N.3    32  ILE32      -0.1245
     84  CA        19.9520   13.7830   22.1950 C.3    32  ILE32       0.1561
     85  C         19.4280   14.3120   20.8470 C.2    32  ILE32       0.2260
     86  O         19.2250   15.5390   20.6900 O.2    32  ILE32      -0.2867
     87  CB        21.3790   14.2830   22.5350 C.3    32  ILE32       0.0252
     88  CG1       22.4150   13.7530   21.5160 C.3    32  ILE32       0.0019
     89  CG2       21.8580   13.9720   23.9960 C.3    32  ILE32       0.0019
     90  CD1       23.7840   14.4640   21.6840 C.3    32  ILE32       0.0001
     91  N          8.8230    9.2150   18.1430 N.3   100  SER100     -0.1202
     92  CA         7.4070    8.9310   18.4120 C.3   100  SER100      0.2020
     93  C          7.0570    9.4470   19.7950 C.2   100  SER100      0.2619
     94  O          7.8640   10.1700   20.4280 O.2   100  SER100     -0.2717
     95  CB         7.2140    7.4070   18.3190 C.3   100  SER100      0.2103
     96  OG         7.7830    6.7910   19.4640 O.3   100  SER100     -0.2182
     97  N          5.8780    9.0500   20.2420 N.am  101  GLN101     -0.1965
     98  CA         5.4210    9.4780   21.5660 C.3   101  GLN101      0.1733
     99  C          6.3670    8.9200   22.6340 C.2   101  GLN101      0.2617
    100  O          6.5800    9.5770   23.6590 O.2   101  GLN101     -0.2715
    101  CB         3.9880    9.0660   21.8960 C.3   101  GLN101      0.0408
    102  CG         2.9150    9.8860   21.1830 C.3   101  GLN101      0.0908
    103  CD         1.7510   10.0870   22.1500 C.2   101  GLN101      0.2608
    104  OE1        1.5490    9.3050   23.0790 O.2   101  GLN101     -0.2717
    105  NE2        1.0180   11.1430   21.9320 N.am  101  GLN101     -0.0878
    106  N          6.8840    7.7230   22.3660 N.am  102  THR102     -0.1951
    107  CA         7.7750    7.0590   23.3200 C.3   102  THR102      0.1897
    108  C          9.2630    7.1620   23.0330 C.2   102  THR102      0.2313
    109  O         10.0370    6.6210   23.8490 O.2   102  THR102     -0.2863
    110  CB         7.3370    5.5400   23.5150 C.3   102  THR102      0.1794
    111  OG1        7.4390    4.9090   22.2130 O.3   102  THR102     -0.2208
    112  CG2        5.9320    5.4160   24.1040 C.3   102  THR102      0.0378
    113  N         12.0350   10.1280   21.8890 N.3   104  SER104     -0.1202
    114  CA        12.3620   11.5580   21.6370 C.3   104  SER104      0.2020
    115  C         13.6310   11.9310   22.3850 C.2   104  SER104      0.2619
    116  O         14.0890   11.0580   23.1760 O.2   104  SER104     -0.2717
    117  CB        11.1740   12.4460   21.9540 C.3   104  SER104      0.2103
    118  OG        10.7070   12.3600   23.2590 O.3   104  SER104     -0.2182
    119  N         14.1360   13.1370   22.2070 N.am  105  ALA105     -0.1965
    120  CA        15.4020   13.5370   22.8590 C.3   105  ALA105      0.1728
    121  C         15.3310   14.3880   24.0850 C.2   105  ALA105      0.2616
    122  O         14.3740   15.1670   24.2810 O.2   105  ALA105     -0.2715
    123  CB        16.2100   14.3660   21.8060 C.3   105  ALA105      0.0334
    124  N         16.4060   14.3000   24.8820 N.am  106  VAL106     -0.1963
    125  CA        16.5140   15.1360   26.0910 C.3   106  VAL106      0.1727
    126  C         17.2470   16.4190   25.6550 C.2   106  VAL106      0.2616
    127  O         17.9710   16.3610   24.6420 O.2   106  VAL106     -0.2715
    128  CB        17.3280   14.3410   27.1430 C.3   106  VAL106      0.0290
    129  CG1       18.7610   14.1570   26.6270 C.3   106  VAL106      0.0023
    130  CG2       17.2760   14.9430   28.5100 C.3   106  VAL106      0.0023
    131  N         17.0820   17.4970   26.4110 N.am  107  CYS107     -0.1954
    132  CA        17.8180   18.7240   26.0690 C.3   107  CYS107      0.1843
    133  C         19.2100   18.6390   26.7230 C.2   107  CYS107      0.2625
    134  O         19.3980   17.8910   27.7030 O.2   107  CYS107     -0.2714
    135  CB        17.1860   20.0200   26.5670 C.3   107  CYS107      0.0997
    136  SG        15.5100   20.3040   25.8900 S.3   107  CYS107     -0.0797
    137  N         20.1250   19.4130   26.1540 N.am  108  LEU108     -0.1977
    138  CA        21.4860   19.5220   26.6990 C.3   108  LEU108      0.1596
    139  C         21.5900   20.9760   27.2280 C.2   108  LEU108      0.2287
    140  O         20.8910   21.8480   26.6710 O.2   108  LEU108     -0.2864
    141  CB        22.5500   19.2230   25.6510 C.3   108  LEU108      0.0297
    142  CG        22.7510   17.7510   25.2610 C.3   108  LEU108      0.0022
    143  CD1       23.7010   17.6400   24.0790 C.3   108  LEU108      0.0001
    144  CD2       23.2820   16.9980   26.4630 C.3   108  LEU108      0.0001
    145  N         16.0170   19.5630   42.9070 N.3   120  THR120     -0.1218
    146  CA        15.5220   18.1930   42.7680 C.3   120  THR120      0.1862
    147  C         15.4370   17.8360   41.2780 C.2   120  THR120      0.2287
    148  O         14.7180   18.5080   40.5090 O.2   120  THR120     -0.2866
    149  CB        14.1420   17.9160   43.4810 C.3   120  THR120      0.1770
    150  OG1       14.3680   18.0680   44.8930 O.3   120  THR120     -0.2211
    151  CG2       13.5930   16.5430   43.1030 C.3   120  THR120      0.0375
    152  N         15.7930   14.1180   38.4130 N.3   122  VAL122     -0.1245
    153  CA        15.3060   12.7160   38.3730 C.3   122  VAL122      0.1561
    154  C         16.3160   11.8700   37.6000 C.2   122  VAL122      0.2260
    155  O         16.8970   12.3850   36.6330 O.2   122  VAL122     -0.2867
    156  CB        13.9230   12.6690   37.6770 C.3   122  VAL122      0.0252
    157  CG1       13.4430   11.2370   37.4660 C.3   122  VAL122      0.0019
    158  CG2       12.8940   13.5370   38.3420 C.3   122  VAL122      0.0019
@<TRIPOS>BOND
     1    91    92    1
     2    95    92    1
     3    95    96    1
     4    92    93    1
     5    93    97   am
     6    93    94    2
     7    97    98    1
     8    86    85    2
     9    85    84    1
    10   102   101    1
    11   102   103    1
    12    88    90    1
    13    88    87    1
    14    98   101    1
    15    98    99    1
    16   114   113    1
    17   114   117    1
    18   114   115    1
    19   123   120    1
    20   105   103   am
    21   117   118    1
    22   103   104    2
    23    84    83    1
    24    84    87    1
    25   119   115   am
    26   119   120    1
    27   111   110    1
    28   106    99   am
    29   106   107    1
    30   115   116    2
    31    87    89    1
    32    99   100    2
    33   120   121    1
    34   108   107    1
    35   108   109    2
    36   107   110    1
    37   110   112    1
    38   143   142    1
    39   121   122    2
    40   121   124   am
    41    65    64    2
    42   127   126    2
    43   124   125    1
    44    66    63    1
    45    66    67    1
    46   142   141    1
    47   142   144    1
    48    64    63    1
    49    64    69   am
    50    70    73    1
    51    70    69    1
    52    70    71    1
    53   141   138    1
    54   126   125    1
    55   126   131   am
    56    72    71    2
    57    63    62    1
    58   136   135    1
    59    73    74    1
    60    67    68    1
    61   132   131    1
    62   132   135    1
    63   132   133    1
    64   125   128    1
    65   137   138    1
    66   137   133   am
    67   129   128    1
    68   140   139    2
    69   138   139    1
    70   133   134    2
    71    79    81   ar
    72    79    76   ar
    73   128   130    1
    74    41    40    2
    75    62    68    1
    76    62    50   am
    77    74    76   ar
    78    74    75   ar
    79    81    82   ar
    80    39    40    1
    81    39    38    1
    82    76    78   ar
    83    40    42   am
    84    51    50    2
    85    50    49    1
    86    75    77   ar
    87    38    33   am
    88    34    33    2
    89    82    80   ar
    90    78    77   ar
    91    78    80   ar
    92    33    32    1
    93    42    43    1
    94    49    48    1
    95    49    52    1
    96    48    44   am
    97    43    44    1
    98    43    46    1
    99    44    45    2
   100    35    32    1
   101    35    36    1
   102    32    31    1
   103    52    53    1
   104    46    47    1
   105    36    37    1
   106    31    37    1
   107    31    26   am
   108    27    26    2
   109    53    55   ar
   110    53    54   ar
   111    26    25    1
   112    29    28    1
   113    58    55   ar
   114    58    60   ar
   115    55    57   ar
   116    54    56   ar
   117    28    25    1
   118    28    30    1
   119    60    61   ar
   120    25    24    1
   121    57    56   ar
   122    57    59   ar
   123    24    21   am
   124    22    21    2
   125    61    59   ar
   126    23    20    1
   127    21    20    1
   128    20    19    1
   129    18    16   ar
   130    19    12   am
   131   155   154    2
   132    16    15    1
   133    16    17   ar
   134    15    14    1
   135   157   156    1
   136    12    13    2
   137    12    11    1
   138   154   153    1
   139   156   158    1
   140   156   153    1
   141    14    11    1
   142    11    10    1
   143   153   152    1
   144     4     3    2
   145    10     3   am
   146     3     2    1
   147   148   147    2
   148     6     7    1
   149     6     5    1
   150     9     7   ar
   151   147   146    1
   152     7     8   ar
   153     2     1    1
   154     2     5    1
   155   146   145    1
   156   146   149    1
   157   151   149    1
   158   149   150    1
