@<TRIPOS>MOLECULE
tmp/8gchC01.pdb
 136 137 0 0 0
SMALL
GASTEIGER

@<TRIPOS>ATOM
      1  N         33.2530   11.4430   49.3190 N.3    23  TRP23      -0.1241
      2  CA        34.1780   10.8550   48.3610 C.3    23  TRP23       0.1605
      3  C         35.5610   11.4390   48.3290 C.2    23  TRP23       0.2264
      4  O         36.4420   10.8060   47.6800 O.2    23  TRP23      -0.2867
      5  CB        33.4840   10.8590   46.9700 C.3    23  TRP23       0.0550
      6  CG        32.2800    9.9750   46.9330 C.ar   23  TRP23       0.0003
      7  CD1       30.9720   10.3510   46.7510 C.ar   23  TRP23       0.0946
      8  CD2       32.2540    8.5480   47.0710 C.ar   23  TRP23       0.0152
      9  NE1       30.1380    9.2580   46.7800 N.ar   23  TRP23      -0.2442
     10  CE2       30.9100    8.1370   46.9730 C.ar   23  TRP23       0.0810
     11  CE3       33.2550    7.5930   47.2470 C.ar   23  TRP23       0.0012
     12  CZ2       30.5130    6.8120   47.0510 C.ar   23  TRP23       0.0191
     13  CZ3       32.8640    6.2650   47.3300 C.ar   23  TRP23       0.0001
     14  CH2       31.5260    5.8730   47.2280 C.ar   23  TRP23       0.0015
     15  N         19.1720    5.5450   45.2770 N.3    40  SER40      -0.1202
     16  CA        20.5360    5.3840   44.7310 C.3    40  SER40       0.2020
     17  C         20.4830    4.7710   43.3470 C.2    40  SER40       0.2619
     18  O         19.6840    3.8440   43.0750 O.2    40  SER40      -0.2717
     19  CB        21.4010    4.5240   45.6590 C.3    40  SER40       0.2103
     20  OG        22.7670    4.4770   45.2130 O.3    40  SER40      -0.2182
     21  N         21.3450    5.3260   42.4820 N.am   41  SER41      -0.1937
     22  CA        21.4710    4.7500   41.1120 C.3    41  SER41       0.2055
     23  C         22.2390    3.4430   41.4400 C.2    41  SER41       0.2643
     24  O         22.7470    3.3840   42.5850 O.2    41  SER41      -0.2714
     25  CB        22.2450    5.6800   40.2110 C.3    41  SER41       0.2130
     26  OG        21.4040    6.6830   39.6900 O.3    41  SER41      -0.2179
     27  N         22.3290    2.4770   40.5790 N.am   42  CYS42      -0.1953
     28  CA        23.0610    1.2180   40.9500 C.3    42  CYS42       0.1843
     29  C         23.6060    0.5880   39.6720 C.2    42  CYS42       0.2625
     30  O         23.4410    1.1580   38.5880 O.2    42  CYS42      -0.2714
     31  CB        22.1210    0.3270   41.7340 C.3    42  CYS42       0.0997
     32  SG        22.8420   -0.9510   42.7990 S.3    42  CYS42      -0.0797
     33  N         24.2670   -0.5650   39.8320 N.am   43  MET43      -0.1963
     34  CA        24.8110   -1.2870   38.6750 C.3    43  MET43       0.1736
     35  C         23.6880   -1.5010   37.6340 C.2    43  MET43       0.2617
     36  O         22.5980   -2.0080   37.9350 O.2    43  MET43      -0.2715
     37  CB        25.4410   -2.6000   39.1060 C.3    43  MET43       0.0427
     38  CG        26.7310   -2.4320   39.8290 C.3    43  MET43       0.0599
     39  SD        26.4830   -1.8570   41.5360 S.3    43  MET43      -0.1393
     40  CE        25.5600   -3.2040   42.2310 C.3    43  MET43       0.0692
     41  N         24.0110   -1.1200   36.4080 N.am   44  GLY44      -0.1955
     42  CA        23.0850   -1.2250   35.2660 C.3    44  GLY44       0.1869
     43  C         22.4330    0.1100   34.9260 C.2    44  GLY44       0.2309
     44  O         21.8650    0.2340   33.8290 O.2    44  GLY44      -0.2863
     45  N         24.2600    2.8870   34.9680 N.3    46  SER46      -0.1217
     46  CA        25.3530    3.6120   34.3190 C.3    46  SER46       0.1889
     47  C         25.0780    4.0380   32.8940 C.2    46  SER46       0.2288
     48  O         24.6300    3.2110   32.1150 O.2    46  SER46      -0.2866
     49  CB        26.6680    2.7900   34.3330 C.3    46  SER46       0.2089
     50  OG        27.2280    2.8730   35.6190 O.3    46  SER46      -0.2183
     51  N         24.7050    8.8480   34.6640 N.3    64  VAL64      -0.1231
     52  CA        25.0030    7.8630   35.7240 C.3    64  VAL64       0.1692
     53  C         26.4490    7.3660   35.5540 C.2    64  VAL64       0.2593
     54  O         26.7740    6.7560   34.5330 O.2    64  VAL64      -0.2718
     55  CB        23.9570    6.7420   35.7080 C.3    64  VAL64       0.0266
     56  CG1       24.2570    5.7980   36.8740 C.3    64  VAL64       0.0020
     57  CG2       22.5240    7.2490   35.7490 C.3    64  VAL64       0.0020
     58  N         27.2660    7.5690   36.5800 N.am   65  SER65      -0.1938
     59  CA        28.6920    7.1730   36.4960 C.3    65  SER65       0.2055
     60  C         29.1230    6.1730   37.5330 C.2    65  SER65       0.2643
     61  O         29.3760    5.0070   37.1070 O.2    65  SER65      -0.2714
     62  CB        29.5630    8.4120   36.4640 C.3    65  SER65       0.2130
     63  OG        30.9550    8.1530   36.3100 O.3    65  SER65      -0.2179
     64  N         29.2560    6.5520   38.7820 N.am   66  TRP66      -0.1959
     65  CA        29.6840    5.6070   39.8480 C.3    66  TRP66       0.1771
     66  C         29.1360    6.0690   41.1830 C.2    66  TRP66       0.2620
     67  O         28.4790    7.1230   41.2800 O.2    66  TRP66      -0.2715
     68  CB        31.2140    5.4910   39.9000 C.3    66  TRP66       0.0590
     69  CG        31.9110    6.7840   40.1730 C.ar   66  TRP66       0.0006
     70  CD1       32.2220    7.7770   39.2970 C.ar   66  TRP66       0.0946
     71  CD2       32.4360    7.2020   41.4410 C.ar   66  TRP66       0.0152
     72  NE1       32.8560    8.8090   39.9300 N.ar   66  TRP66      -0.2442
     73  CE2       33.0160    8.4780   41.2310 C.ar   66  TRP66       0.0810
     74  CE3       32.4610    6.6340   42.7150 C.ar   66  TRP66       0.0012
     75  CZ2       33.6280    9.1840   42.2760 C.ar   66  TRP66       0.0191
     76  CZ3       33.0540    7.3470   43.7240 C.ar   66  TRP66       0.0001
     77  CH2       33.6240    8.5980   43.5160 C.ar   66  TRP66       0.0015
     78  N         29.4550    5.2640   42.1990 N.am   67  GLY67      -0.1940
     79  CA        28.9710    5.6290   43.5570 C.3    67  GLY67       0.2014
     80  C         29.3960    4.5190   44.5190 C.2    67  GLY67       0.2640
     81  O         30.4110    3.8570   44.2720 O.2    67  GLY67      -0.2714
     82  N         28.5880    4.3650   45.5200 N.am   68  SER68      -0.1935
     83  CA        28.7640    3.3600   46.5890 C.3    68  SER68       0.2055
     84  C         28.7350    1.9920   45.9290 C.2    68  SER68       0.2643
     85  O         27.8560    1.7580   45.0840 O.2    68  SER68      -0.2714
     86  CB        27.6350    3.5160   47.5980 C.3    68  SER68       0.2130
     87  OG        27.5550    2.3090   48.3570 O.3    68  SER68      -0.2179
     88  N         29.6840    1.1370   46.3170 N.am   69  SER69      -0.1949
     89  CA        29.7540   -0.2130   45.7130 C.3    69  SER69       0.1924
     90  C         28.5600   -1.0710   46.1080 C.2    69  SER69       0.2314
     91  O         28.2920   -2.1580   45.5790 O.2    69  SER69      -0.2863
     92  CB        31.0430   -0.8920   46.2000 C.3    69  SER69       0.2116
     93  OG        31.0130   -0.8470   47.6290 O.3    69  SER69      -0.2180
     94  N         25.4770    0.6560   46.6100 N.3    71  CYS71      -0.1235
     95  CA        24.2860    1.4370   46.2170 C.3    71  CYS71       0.1677
     96  C         23.5630    1.8890   47.4860 C.2    71  CYS71       0.2270
     97  O         22.3270    1.8020   47.5620 O.2    71  CYS71      -0.2867
     98  CB        23.3580    0.6070   45.3390 C.3    71  CYS71       0.0956
     99  SG        24.2710   -0.0170   43.8860 S.3    71  CYS71      -0.0801
    100  N         24.6070    7.6650   50.5920 N.3    75  THR75      -0.1204
    101  CA        25.8800    8.1660   50.0170 C.3    75  THR75       0.1979
    102  C         25.4950    8.7270   48.6590 C.2    75  THR75       0.2460
    103  O         24.6280    8.1400   47.9620 O.2    75  THR75      -0.2732
    104  CB        27.0060    7.0930   49.9900 C.3    75  THR75       0.1783
    105  OG1       26.7700    6.2540   48.8380 O.3    75  THR75      -0.2211
    106  CG2       27.0670    6.1650   51.2200 C.3    75  THR75       0.0376
    107  N         26.1210    9.8250   48.3070 N.am   76  PRO76      -0.2717
    108  CA        25.8110   10.4490   47.0150 C.3    76  PRO76       0.1536
    109  C         26.3760    9.6250   45.8620 C.2    76  PRO76       0.2599
    110  O         27.4860    9.0600   45.9100 O.2    76  PRO76      -0.2715
    111  CB        26.3890   11.8280   47.1100 C.3    76  PRO76       0.0310
    112  CG        27.5060   11.7140   48.1220 C.3    76  PRO76       0.0237
    113  CD        27.1200   10.5810   49.0590 C.3    76  PRO76       0.0939
    114  N         25.5560    9.6090   44.8420 N.am   77  GLY77      -0.1941
    115  CA        25.8270    8.9550   43.5560 C.3    77  GLY77       0.2014
    116  C         26.6400   10.0190   42.7820 C.2    77  GLY77       0.2639
    117  O         26.4810   11.2200   43.0760 O.2    77  GLY77      -0.2714
    118  N         27.5380    9.5450   41.9540 N.am   78  VAL78      -0.1963
    119  CA        28.4220   10.4210   41.1570 C.3    78  VAL78       0.1727
    120  C         28.0750   10.2230   39.6780 C.2    78  VAL78       0.2616
    121  O         28.0240    9.0720   39.1720 O.2    78  VAL78      -0.2715
    122  CB        29.8900   10.1360   41.5080 C.3    78  VAL78       0.0290
    123  CG1       30.8300   11.1350   40.8820 C.3    78  VAL78       0.0023
    124  CG2       30.1000   10.0660   43.0190 C.3    78  VAL78       0.0023
    125  N         27.8310   11.3490   39.0470 N.am   79  TYR79      -0.1974
    126  CA        27.4290   11.4600   37.6540 C.3    79  TYR79       0.1639
    127  C         28.4210   12.2920   36.8760 C.2    79  TYR79       0.2290
    128  O         29.1180   13.1270   37.5060 O.2    79  TYR79      -0.2864
    129  CB        25.9950   12.1300   37.5940 C.3    79  TYR79       0.0560
    130  CG        24.9970   11.4050   38.4550 C.ar   79  TYR79      -0.0198
    131  CD1       25.0420   11.4490   39.8520 C.ar   79  TYR79      -0.0009
    132  CD2       24.0240   10.5970   37.8570 C.ar   79  TYR79      -0.0009
    133  CE1       24.0990   10.7360   40.6080 C.ar   79  TYR79       0.0417
    134  CE2       23.0880    9.8770   38.5990 C.ar   79  TYR79       0.0417
    135  CZ        23.1540    9.9270   39.9880 C.ar   79  TYR79       0.1957
    136  OH        22.2570    9.1820   40.6830 O.3    79  TYR79      -0.2866
@<TRIPOS>BOND
     1    48    47    2
     2    47    46    1
     3    44    43    2
     4    46    49    1
     5    46    45    1
     6    49    50    1
     7    54    53    2
     8    51    52    1
     9    43    42    1
    10    42    41    1
    11    53    52    1
    12    53    58   am
    13    55    52    1
    14    55    57    1
    15    55    56    1
    16    63    62    1
    17    41    35   am
    18    62    59    1
    19    59    58    1
    20    59    60    1
    21   127   128    2
    22   127   126    1
    23    61    60    2
    24    60    64   am
    25   129   126    1
    26   129   130    1
    27    35    36    2
    28    35    34    1
    29   126   125    1
    30   132   130   ar
    31   132   134   ar
    32   130   131   ar
    33    30    29    2
    34   134   135   ar
    35    34    37    1
    36    34    33    1
    37    64    65    1
    38   125   120   am
    39    37    38    1
    40   121   120    2
    41    70    72   ar
    42    70    69   ar
    43    29    33   am
    44    29    28    1
    45   120   119    1
    46    26    25    1
    47    38    39    1
    48    65    68    1
    49    65    66    1
    50   131   133   ar
    51    68    69    1
    52    72    73   ar
    53   135   133   ar
    54   135   136    1
    55    69    71   ar
    56    25    22    1
    57    27    28    1
    58    27    23   am
    59   123   122    1
    60    28    31    1
    61    22    23    1
    62    22    21    1
    63   119   122    1
    64   119   118    1
    65    66    67    2
    66    66    78   am
    67    73    71   ar
    68    73    75   ar
    69    23    24    2
    70    71    74   ar
    71   122   124    1
    72    39    40    1
    73    31    32    1
    74   118   116   am
    75    78    79    1
    76    75    77   ar
    77    21    17   am
    78    74    76   ar
    79   116   117    2
    80   116   115    1
    81    32    99    1
    82    18    17    2
    83    17    16    1
    84    77    76   ar
    85   115   114    1
    86    79    80    1
    87    99    98    1
    88    81    80    2
    89    80    82   am
    90    16    15    1
    91    16    19    1
    92   114   109   am
    93    85    84    2
    94    20    19    1
    95    98    95    1
    96    82    83    1
    97    91    90    2
    98    89    90    1
    99    89    92    1
   100    89    88    1
   101   109   110    2
   102   109   108    1
   103    84    88   am
   104    84    83    1
   105    92    93    1
   106    95    94    1
   107    95    96    1
   108    83    86    1
   109     7     9   ar
   110     7     6   ar
   111     9    10   ar
   112     6     5    1
   113     6     8   ar
   114     5     2    1
   115    10    12   ar
   116    10     8   ar
   117   108   111    1
   118   108   107    1
   119    12    14   ar
   120     8    11   ar
   121   111   112    1
   122    14    13   ar
   123    11    13   ar
   124    96    97    2
   125    86    87    1
   126     4     3    2
   127   103   102    2
   128   112   113    1
   129   107   102   am
   130   107   113    1
   131     3     2    1
   132     2     1    1
   133   102   101    1
   134   105   104    1
   135   104   101    1
   136   104   106    1
   137   101   100    1
