@<TRIPOS>MOLECULE
tmp/8gpbA02.pdb
 117 118 0 0 0
SMALL
GASTEIGER

@<TRIPOS>ATOM
      1  N         33.1580   31.2730   39.5430 N.3   271  PRO271     -0.2102
      2  CA        32.2280   31.5670   38.4320 C.3   271  PRO271      0.1504
      3  C         32.8130   31.6530   36.9760 C.2   271  PRO271      0.2576
      4  O         32.2390   32.2580   36.0490 O.2   271  PRO271     -0.2718
      5  CB        31.6020   32.8510   38.9560 C.3   271  PRO271      0.0282
      6  CG        32.8340   33.5880   39.4750 C.3   271  PRO271      0.0208
      7  CD        33.4860   32.4850   40.2920 C.3   271  PRO271      0.0893
      8  N         33.9410   31.0250   36.6460 N.am  272  ASN272     -0.1961
      9  CA        34.5660   31.1430   35.3420 C.3   272  ASN272      0.1819
     10  C         34.4310   29.9200   34.4620 C.2   272  ASN272      0.2621
     11  O         34.8010   28.8020   34.8080 O.2   272  ASN272     -0.2715
     12  CB        36.0500   31.4150   35.4580 C.3   272  ASN272      0.1195
     13  CG        36.3220   32.6960   36.2300 C.2   272  ASN272      0.2630
     14  OD1       36.5260   32.5970   37.4380 O.2   272  ASN272     -0.2716
     15  ND2       36.3150   33.8870   35.6380 N.am  272  ASN272     -0.0877
     16  N         34.0200   30.1970   33.2530 N.am  273  ASP273     -0.1957
     17  CA        33.8150   29.1820   32.2620 C.3   273  ASP273      0.1840
     18  C         34.9730   29.3180   31.2880 C.2   273  ASP273      0.2622
     19  O         35.1980   30.3920   30.6980 O.2   273  ASP273     -0.2715
     20  CB        32.5120   29.4680   31.5770 C.3   273  ASP273      0.1450
     21  CG        32.1840   28.5160   30.4580 C.2   273  ASP273      0.3671
     22  OD1       31.7100   27.4190   30.7730 O.co2 273  ASP273     -0.2456
     23  OD2       32.3890   28.8870   29.2900 O.co2 273  ASP273     -0.2456
     24  N         35.7240   28.2360   31.1110 N.am  274  ASN274     -0.1958
     25  CA        36.8650   28.1980   30.2100 C.3   274  ASN274      0.1819
     26  C         37.8260   29.3420   30.4920 C.2   274  ASN274      0.2621
     27  O         38.1090   30.1050   29.5590 O.2   274  ASN274     -0.2715
     28  CB        36.3970   28.2570   28.7170 C.3   274  ASN274      0.1195
     29  CG        35.8670   26.9300   28.1680 C.2   274  ASN274      0.2630
     30  OD1       36.6510   26.0300   27.8560 O.2   274  ASN274     -0.2716
     31  ND2       34.5440   26.7060   28.0590 N.am  274  ASN274     -0.0877
     32  N         38.3110   29.5080   31.7520 N.am  275  PHE275     -0.1974
     33  CA        39.2920   30.5530   32.0740 C.3   275  PHE275      0.1639
     34  C         39.9750   30.1310   33.3500 C.2   275  PHE275      0.2290
     35  O         39.2480   29.7980   34.2710 O.2   275  PHE275     -0.2864
     36  CB        38.6450   31.9160   32.3240 C.3   275  PHE275      0.0560
     37  CG        39.6160   33.0860   32.3780 C.ar  275  PHE275     -0.0200
     38  CD1       40.2310   33.5300   31.2210 C.ar  275  PHE275     -0.0042
     39  CD2       39.9010   33.7010   33.5770 C.ar  275  PHE275     -0.0042
     40  CE1       41.1270   34.5760   31.2500 C.ar  275  PHE275     -0.0003
     41  CE2       40.7980   34.7480   33.5860 C.ar  275  PHE275     -0.0003
     42  CZ        41.4120   35.1860   32.4290 C.ar  275  PHE275     -0.0000
     43  N         42.1660   30.9960   36.7810 N.3   277  GLU277     -0.1245
     44  CA        42.5050   32.0770   37.7200 C.3   277  GLU277      0.1567
     45  C         43.3300   31.3340   38.7990 C.2   277  GLU277      0.2260
     46  O         42.9610   30.3360   39.4420 O.2   277  GLU277     -0.2867
     47  CB        41.2270   32.6680   38.3090 C.3   277  GLU277      0.0388
     48  CG        40.8940   34.1360   38.2070 C.3   277  GLU277      0.1160
     49  CD        39.9070   34.5330   39.3130 C.2   277  GLU277      0.3649
     50  OE1       38.8920   33.8500   39.4870 O.co2 277  GLU277     -0.2457
     51  OE2       40.1830   35.4620   40.0920 O.co2 277  GLU277     -0.2457
     52  N         44.0030   30.4800   27.6010 N.3   372  GLU372     -0.1245
     53  CA        43.6950   31.0840   28.8560 C.3   372  GLU372      0.1567
     54  C         42.8410   30.2110   29.7850 C.2   372  GLU372      0.2260
     55  O         42.5860   30.5290   30.9490 O.2   372  GLU372     -0.2867
     56  CB        43.0420   32.4200   28.5750 C.3   372  GLU372      0.0388
     57  CG        41.6170   32.4180   28.0900 C.3   372  GLU372      0.1160
     58  CD        41.3240   32.0510   26.6480 C.2   372  GLU372      0.3649
     59  OE1       42.1990   32.0990   25.7540 O.co2 372  GLU372     -0.2457
     60  OE2       40.1620   31.7410   26.4270 O.co2 372  GLU372     -0.2457
     61  N         30.7290   34.2970   25.9260 N.3   561  HIS561     -0.1226
     62  CA        32.1630   34.2690   25.5750 C.3   561  HIS561      0.1752
     63  C         32.4500   34.8930   24.2130 C.2   561  HIS561      0.2595
     64  O         31.5210   34.9180   23.3780 O.2   561  HIS561     -0.2718
     65  CB        32.7120   32.8540   25.4920 C.3   561  HIS561      0.0759
     66  CG        33.4410   32.2680   26.6930 C.ar  561  HIS561      0.0818
     67  ND1       34.7070   32.4640   27.0460 N.ar  561  HIS561     -0.2268
     68  CD2       32.8690   31.3690   27.5700 C.ar  561  HIS561      0.1154
     69  CE1       34.9310   31.7230   28.0980 C.ar  561  HIS561      0.1986
     70  NE2       33.8210   31.0800   28.3870 N.ar  561  HIS561     -0.2212
     71  N         33.6780   35.4010   23.9380 N.am  562  GLU562     -0.1979
     72  CA        33.9550   35.9330   22.5960 C.3   562  GLU562      0.1602
     73  C         34.0900   34.8260   21.5670 C.2   562  GLU562      0.2287
     74  O         33.6910   35.0370   20.4280 O.2   562  GLU562     -0.2864
     75  CB        35.2360   36.7350   22.5370 C.3   562  GLU562      0.0415
     76  CG        35.2910   38.0170   23.3150 C.3   562  GLU562      0.1163
     77  CD        36.6820   38.3450   23.8660 C.2   562  GLU562      0.3649
     78  OE1       37.4520   37.4470   24.2470 O.co2 562  GLU562     -0.2457
     79  OE2       36.9980   39.5280   23.9310 O.co2 562  GLU562     -0.2457
     80  N         31.1020   35.6150   33.3340 N.3   600  ALA600     -0.1231
     81  CA        31.8330   35.6470   34.6240 C.3   600  ALA600      0.1679
     82  C         31.8900   37.1210   35.0480 C.2   600  ALA600      0.2434
     83  O         31.9990   37.9690   34.1510 O.2   600  ALA600     -0.2733
     84  CB        33.2680   35.1180   34.4540 C.3   600  ALA600      0.0304
     85  N         31.7250   37.5230   36.3140 N.am  601  PRO601     -0.2718
     86  CA        31.9710   38.8890   36.8020 C.3   601  PRO601      0.1535
     87  C         33.3750   39.4160   36.4380 C.2   601  PRO601      0.2599
     88  O         34.3340   38.6710   36.6170 O.2   601  PRO601     -0.2715
     89  CB        31.7470   38.7250   38.2780 C.3   601  PRO601      0.0310
     90  CG        30.9730   37.4770   38.4880 C.3   601  PRO601      0.0237
     91  CD        31.5680   36.6100   37.4340 C.3   601  PRO601      0.0939
     92  N         33.6730   40.6150   35.9410 N.am  602  GLY602     -0.1941
     93  CA        35.0980   40.8700   35.6480 C.3   602  GLY602      0.2014
     94  C         35.5650   40.3810   34.2780 C.2   602  GLY602      0.2639
     95  O         36.6050   40.8350   33.7700 O.2   602  GLY602     -0.2714
     96  N         34.7930   39.5310   33.5800 N.am  603  TYR603     -0.1959
     97  CA        35.0280   39.3060   32.1610 C.3   603  TYR603      0.1771
     98  C         34.2870   40.5170   31.5770 C.2   603  TYR603      0.2619
     99  O         33.0830   40.4640   31.2650 O.2   603  TYR603     -0.2715
    100  CB        34.3850   38.0180   31.6840 C.3   603  TYR603      0.0574
    101  CG        34.7250   37.5730   30.2470 C.ar  603  TYR603     -0.0198
    102  CD1       35.4630   38.3380   29.3530 C.ar  603  TYR603     -0.0009
    103  CD2       34.2010   36.3760   29.7900 C.ar  603  TYR603     -0.0009
    104  CE1       35.6690   37.9000   28.0480 C.ar  603  TYR603      0.0417
    105  CE2       34.4110   35.9350   28.4920 C.ar  603  TYR603      0.0417
    106  CZ        35.1280   36.7050   27.6090 C.ar  603  TYR603      0.1957
    107  OH        35.2560   36.2260   26.3080 O.3   603  TYR603     -0.2866
    108  N         35.0060   41.6540   31.5000 N.am  604  HIS604     -0.1973
    109  CA        34.4460   42.9140   31.0270 C.3   604  HIS604      0.1656
    110  C         33.8040   42.8630   29.6540 C.2   604  HIS604      0.2291
    111  O         32.7570   43.4920   29.4860 O.2   604  HIS604     -0.2864
    112  CB        35.5320   43.9820   31.0260 C.3   604  HIS604      0.0771
    113  CG        35.1800   45.3100   30.3270 C.ar  604  HIS604      0.0820
    114  ND1       35.7310   45.8370   29.2090 N.ar  604  HIS604     -0.2267
    115  CD2       34.2270   46.2160   30.7630 C.ar  604  HIS604      0.1154
    116  CE1       35.1640   46.9980   28.9580 C.ar  604  HIS604      0.1986
    117  NE2       34.2640   47.2120   29.9050 N.ar  604  HIS604     -0.2212
@<TRIPOS>BOND
     1    74    73    2
     2    73    72    1
     3    75    72    1
     4    75    76    1
     5    72    71    1
     6    76    77    1
     7    64    63    2
     8    77    79   ar
     9    77    78   ar
    10    71    63   am
    11    63    62    1
    12    65    62    1
    13    65    66    1
    14    62    61    1
    15    59    58   ar
    16   107   106    1
    17    60    58   ar
    18    58    57    1
    19    66    67   ar
    20    66    68   ar
    21    67    69   ar
    22    68    70   ar
    23    52    53    1
    24   106   104   ar
    25   106   105   ar
    26    30    29    2
    27   104   102   ar
    28    31    29   am
    29    57    56    1
    30    69    70   ar
    31    29    28    1
    32   105   103   ar
    33    56    53    1
    34    28    25    1
    35    53    54    1
    36   116   114   ar
    37   116   117   ar
    38   114   113   ar
    39    23    21   ar
    40   102   101   ar
    41   111   110    2
    42    27    26    2
    43   110   109    1
    44    54    55    2
    45   103   101   ar
    46   117   115   ar
    47    25    26    1
    48    25    24    1
    49   101   100    1
    50   113   115   ar
    51   113   112    1
    52    21    22   ar
    53    21    20    1
    54    26    32   am
    55    19    18    2
    56   112   109    1
    57   109   108    1
    58    24    18   am
    59    38    40   ar
    60    38    37   ar
    61    40    42   ar
    62    99    98    2
    63    18    17    1
    64   108    98   am
    65    98    97    1
    66    20    17    1
    67   100    97    1
    68    32    33    1
    69    33    36    1
    70    33    34    1
    71    97    96    1
    72    17    16    1
    73    36    37    1
    74    37    39   ar
    75    42    41   ar
    76    16    10   am
    77    80    81    1
    78    34    35    2
    79    39    41   ar
    80    96    94   am
    81    95    94    2
    82    83    82    2
    83    94    93    1
    84    84    81    1
    85    10    11    2
    86    10     9    1
    87    81    82    1
    88    82    85   am
    89     9    12    1
    90     9     8    1
    91    12    13    1
    92    15    13   am
    93    93    92    1
    94    92    87   am
    95     4     3    2
    96    13    14    2
    97    85    86    1
    98    85    91    1
    99    87    88    2
   100    87    86    1
   101     8     3   am
   102    43    44    1
   103    86    89    1
   104     3     2    1
   105    91    90    1
   106    44    47    1
   107    44    45    1
   108    48    47    1
   109    48    49    1
   110    89    90    1
   111     2     5    1
   112     2     1    1
   113    45    46    2
   114     5     6    1
   115    49    50   ar
   116    49    51   ar
   117     6     7    1
   118     1     7    1
