@<TRIPOS>MOLECULE
tmp/8hvpB00.pdb
 131 124 0 0 0
SMALL
GASTEIGER

@<TRIPOS>ATOM
      1  N          5.9260   12.1820   15.1380 N.3     8  ARG8       -0.1245
      2  CA         6.5310   10.9330   15.5690 C.3     8  ARG8        0.1563
      3  C          7.5550   11.2680   16.6170 C.2     8  ARG8        0.2260
      4  O          8.1080   12.3760   16.5720 O.2     8  ARG8       -0.2867
      5  CB         7.3570   10.4130   14.3770 C.3     8  ARG8        0.0307
      6  CG         6.4020   10.0860   13.2560 C.3     8  ARG8        0.0489
      7  CD         7.2800    9.7650   12.0650 C.3     8  ARG8        0.2205
      8  NE         6.3660    9.1240   11.1450 N.pl3   8  ARG8       -0.0865
      9  CZ         6.5340    8.9350    9.8470 C.cat   8  ARG8        0.5346
     10  NH1        7.6340    9.2010    9.1660 N.pl3   8  ARG8        0.1354
     11  NH2        5.4400    8.5190    9.2120 N.pl3   8  ARG8        0.1354
     12  N         13.1310    6.5270   16.5700 N.3    23  LEU23      -0.1301
     13  CA        11.7150    6.5760   16.8550 C.3    23  LEU23       0.1247
     14  C         11.5850    5.8060   18.1820 C.3    23  LEU23       0.2009
     15  O         11.9450    4.6130   18.1120 O.3    23  LEU23      -0.2188
     16  CB        11.0130    5.7820   15.7590 C.3    23  LEU23       0.0217
     17  CG         9.5620    5.8340   15.4010 C.3    23  LEU23       0.0015
     18  CD1        9.2960    7.1400   14.6170 C.3    23  LEU23       0.0000
     19  CD2        9.1410    4.8020   14.3640 C.3    23  LEU23       0.0000
     20  N          9.7010    3.7080   20.2050 N.3    25  ASP25      -0.1239
     21  CA         8.5690    2.8300   19.8900 C.3    25  ASP25       0.1674
     22  C          7.9620    2.0570   21.0570 C.2    25  ASP25       0.2266
     23  O          8.2490    0.8580   21.1740 O.2    25  ASP25      -0.2867
     24  CB         9.0940    1.8870   18.7580 C.3    25  ASP25       0.1410
     25  CG         7.8550    1.3440   18.0640 C.2    25  ASP25       0.3668
     26  OD1        6.7600    1.3110   18.7130 O.co2  25  ASP25      -0.2456
     27  OD2        7.8910    1.0010   16.8630 O.co2  25  ASP25      -0.2456
     28  N          5.7220    0.4370   21.1440 N.3    27  GLY27      -0.1210
     29  CA         5.0870   -0.7110   20.5110 C.3    27  GLY27       0.1956
     30  C          6.0940   -1.6840   19.9440 C.2    27  GLY27       0.2612
     31  O          5.6130   -2.6510   19.3110 O.2    27  GLY27      -0.2717
     32  N          7.3740   -1.4630   20.1570 N.am   28  ALA28      -0.1965
     33  CA         8.4410   -2.3400   19.6720 C.3    28  ALA28       0.1728
     34  C          9.0250   -3.1580   20.8230 C.2    28  ALA28       0.2616
     35  O          9.4810   -2.6520   21.8450 O.2    28  ALA28      -0.2715
     36  CB         9.6180   -1.6830   19.0010 C.3    28  ALA28       0.0334
     37  N          8.9540   -4.4390   20.5530 N.am   29  ASP29      -0.1957
     38  CA         9.4830   -5.4750   21.4280 C.3    29  ASP29       0.1840
     39  C         11.0090   -5.3670   21.6060 C.2    29  ASP29       0.2622
     40  O         11.4960   -5.5850   22.7270 O.2    29  ASP29      -0.2715
     41  CB         9.0220   -6.8400   20.8990 C.3    29  ASP29       0.1450
     42  CG         7.8450   -7.4320   21.6240 C.2    29  ASP29       0.3671
     43  OD1        6.8830   -6.6850   21.8580 O.co2  29  ASP29      -0.2456
     44  OD2        7.8680   -8.6310   21.9910 O.co2  29  ASP29      -0.2456
     45  N         11.7160   -5.1740   20.5160 N.am   30  ASP30      -0.1971
     46  CA        13.1240   -5.1210   20.1910 C.3    30  ASP30       0.1709
     47  C         13.5570   -3.7840   19.5970 C.2    30  ASP30       0.2293
     48  O         12.7000   -2.9630   19.2440 O.2    30  ASP30      -0.2864
     49  CB        13.4280   -6.1560   19.0510 C.3    30  ASP30       0.1436
     50  CG        12.9600   -7.5230   19.5180 C.2    30  ASP30       0.3671
     51  OD1       13.3010   -7.7140   20.7220 O.co2  30  ASP30      -0.2456
     52  OD2       12.2570   -8.2960   18.8370 O.co2  30  ASP30      -0.2456
     53  N         15.6390   -2.2670   16.3600 N.3    32  VAL32      -0.1245
     54  CA        16.0190   -2.5570   14.9890 C.3    32  VAL32       0.1561
     55  C         16.5270   -1.2680   14.3650 C.2    32  VAL32       0.2260
     56  O         15.7370   -0.3390   14.1890 O.2    32  VAL32      -0.2867
     57  CB        14.8320   -3.0930   14.1750 C.3    32  VAL32       0.0252
     58  CG1       15.2920   -3.7290   12.8660 C.3    32  VAL32       0.0019
     59  CG2       13.9750   -4.0610   15.0090 C.3    32  VAL32       0.0019
     60  N         14.1720  -13.7130   13.3530 N.3    46  MET46      -0.1230
     61  CA        13.0170  -13.1630   12.6650 C.3    46  MET46       0.1702
     62  C         12.0140  -12.3240   13.4230 C.2    46  MET46       0.2592
     63  O         11.7010  -12.6440   14.5790 O.2    46  MET46      -0.2718
     64  CB        12.3700  -14.2790   11.8140 C.3    46  MET46       0.0401
     65  CG        13.0150  -14.1940   10.4540 C.3    46  MET46       0.0596
     66  SD        12.1900  -15.3490    9.3460 S.3    46  MET46      -0.1393
     67  CE        13.2040  -15.0430    7.8900 C.3    46  MET46       0.0692
     68  N         11.6420  -11.2240   12.8010 N.am   47  ILE47      -0.1966
     69  CA        10.6470  -10.3780   13.4560 C.3    47  ILE47       0.1727
     70  C          9.6980   -9.9290   12.3620 C.2    47  ILE47       0.2617
     71  O         10.1030   -9.9760   11.2060 O.2    47  ILE47      -0.2715
     72  CB        11.2660   -9.2380   14.3390 C.3    47  ILE47       0.0290
     73  CG1       11.9670   -8.2260   13.4780 C.3    47  ILE47       0.0022
     74  CG2       12.2340   -9.8030   15.4210 C.3    47  ILE47       0.0023
     75  CD1       12.5670   -6.8820   13.5750 C.3    47  ILE47       0.0001
     76  N          8.5200   -9.5790   12.8130 N.am   48  GLY48      -0.1940
     77  CA         7.4950   -9.0900   11.8770 C.3    48  GLY48       0.2014
     78  C          6.4620   -8.2950   12.6870 C.2    48  GLY48       0.2639
     79  O          6.6140   -8.1520   13.9080 O.2    48  GLY48      -0.2714
     80  N          5.4200   -7.9620   11.9380 N.am   49  GLY49      -0.1939
     81  CA         4.2590   -7.2150   12.4390 C.3    49  GLY49       0.2014
     82  C          3.3480   -6.8790   11.2710 C.2    49  GLY49       0.2635
     83  O          2.9770   -7.8310   10.5750 O.2    49  GLY49      -0.2714
     84  N          2.9770   -5.6250   11.0700 N.am   50  ILE50      -0.2030
     85  CA         2.0650   -5.3200    9.9230 C.3    50  ILE50       0.1282
     86  C          2.9340   -5.7300    8.7610 C.3    50  ILE50       0.2035
     87  O          4.0710   -5.2150    8.9340 O.3    50  ILE50      -0.2185
     88  CB         1.6910   -3.8010    9.9050 C.3    50  ILE50       0.0226
     89  CG1        0.6590   -3.5260   11.0330 C.3    50  ILE50       0.0018
     90  CG2        1.1040   -3.1430    8.6350 C.3    50  ILE50       0.0018
     91  CD1       -0.6060   -4.4270   10.9010 C.3    50  ILE50       0.0001
     92  N          7.1680  -10.8490    8.2660 N.3    53  PHE53      -0.1241
     93  CA         8.4860  -11.0200    8.9180 C.3    53  PHE53       0.1605
     94  C          9.6000  -10.6120    7.9880 C.2    53  PHE53       0.2264
     95  O          9.3300  -10.6290    6.7800 O.2    53  PHE53      -0.2867
     96  CB         8.7310  -12.4690    9.3890 C.3    53  PHE53       0.0534
     97  CG         7.8290  -12.8040   10.5570 C.ar   53  PHE53      -0.0203
     98  CD1        6.4490  -12.7380   10.3770 C.ar   53  PHE53      -0.0042
     99  CD2        8.3040  -13.1210   11.8130 C.ar   53  PHE53      -0.0042
    100  CE1        5.5610  -13.0380   11.3670 C.ar   53  PHE53      -0.0003
    101  CE2        7.4010  -13.4200   12.8400 C.ar   53  PHE53      -0.0003
    102  CZ         6.0170  -13.3660   12.6450 C.ar   53  PHE53      -0.0000
    103  N         15.0640   -2.3440    7.9710 N.3    79  THR79      -0.1204
    104  CA        14.0350   -1.4560    8.4790 C.3    79  THR79       0.1979
    105  C         14.0900   -0.0560    7.8580 C.2    79  THR79       0.2460
    106  O         15.1700    0.5500    7.6740 O.2    79  THR79      -0.2732
    107  CB        14.1540   -1.2260   10.0730 C.3    79  THR79       0.1783
    108  OG1       13.2560   -0.1080   10.3310 O.3    79  THR79      -0.2211
    109  CG2       15.6090   -0.9470   10.4400 C.3    79  THR79       0.0376
    110  N         12.8720    0.4730    7.7060 N.am   80  PRO80      -0.2717
    111  CA        12.7200    1.8360    7.1820 C.3    80  PRO80       0.1535
    112  C         12.8490    2.8750    8.2550 C.2    80  PRO80       0.2598
    113  O         12.6030    4.0340    7.8660 O.2    80  PRO80      -0.2715
    114  CB        11.3150    1.9190    6.5960 C.3    80  PRO80       0.0310
    115  CG        10.5620    0.9870    7.5280 C.3    80  PRO80       0.0237
    116  CD        11.5490   -0.1030    7.9180 C.3    80  PRO80       0.0939
    117  N         13.0920    2.5330    9.5010 N.am   81  VAL81      -0.1978
    118  CA        13.2530    3.5790   10.5330 C.3    81  VAL81       0.1596
    119  C         14.0350    2.8590   11.6350 C.2    81  VAL81       0.2287
    120  O         13.7440    1.6910   11.8820 O.2    81  VAL81      -0.2864
    121  CB        12.0440    4.3080   11.0990 C.3    81  VAL81       0.0276
    122  CG1       12.3900    5.6430   11.8160 C.3    81  VAL81       0.0022
    123  CG2       10.9220    4.6090   10.1180 C.3    81  VAL81       0.0022
    124  N         14.5060    2.0100   15.0910 N.3    83  ILE83      -0.1301
    125  CA        13.4690    1.9450   16.1010 C.3    83  ILE83       0.1246
    126  C         14.1690    1.4830   17.3730 C.3    83  ILE83       0.2009
    127  O         14.8190    0.4500   17.2310 O.3    83  ILE83      -0.2188
    128  CB        12.5600    0.8050   15.5200 C.3    83  ILE83       0.0202
    129  CG1       11.8280    1.2600   14.2440 C.3    83  ILE83       0.0015
    130  CG2       11.5600    0.1290   16.4850 C.3    83  ILE83       0.0016
    131  CD1       11.2280   -0.0850   13.6280 C.3    83  ILE83       0.0000
@<TRIPOS>BOND
     1   114   111    1
     2   114   115    1
     3    95    94    2
     4   111   110    1
     5   111   112    1
     6   115   116    1
     7   106   105    2
     8   110   105   am
     9   110   116    1
    10   105   104    1
    11   113   112    2
    12    67    66    1
    13   103   104    1
    14    94    93    1
    15   112   117   am
    16    92    93    1
    17   104   107    1
    18    90    88    1
    19    86    87    1
    20    86    85    1
    21    93    96    1
    22    10     9    1
    23    11     9    1
    24    66    65    1
    25    96    97    1
    26   117   118    1
    27     9     8    2
    28    88    85    1
    29    88    89    1
    30    85    84    1
    31   107   108    1
    32   107   109    1
    33   123   121    1
    34    98    97   ar
    35    98   100   ar
    36    65    64    1
    37   118   121    1
    38   118   119    1
    39    97    99   ar
    40    83    82    2
    41    91    89    1
    42    84    82   am
    43   121   122    1
    44     8     7    1
    45    71    70    2
    46    82    81    1
    47   100   102   ar
    48   119   120    2
    49    99   101   ar
    50    64    61    1
    51    77    78    1
    52    77    76    1
    53    80    81    1
    54    80    78   am
    55     7     6    1
    56    70    76   am
    57    70    69    1
    58   102   101   ar
    59    61    60    1
    60    61    62    1
    61    78    79    2
    62    68    62   am
    63    68    69    1
    64    58    57    1
    65     6     5    1
    66    62    63    2
    67    69    72    1
    68    73    75    1
    69    73    72    1
    70   131   129    1
    71    57    54    1
    72    57    59    1
    73    56    55    2
    74   129   128    1
    75    72    74    1
    76    19    17    1
    77    55    54    1
    78     5     2    1
    79    18    17    1
    80    54    53    1
    81   124   125    1
    82     1     2    1
    83    17    16    1
    84   128   125    1
    85   128   130    1
    86     2     3    1
    87    16    13    1
    88   125   126    1
    89    12    13    1
    90     4     3    2
    91    13    14    1
    92    27    25   ar
    93   127   126    1
    94    25    26   ar
    95    25    24    1
    96    15    14    1
    97    24    21    1
    98    52    50   ar
    99    36    33    1
   100    49    50    1
   101    49    46    1
   102    48    47    2
   103    31    30    2
   104    50    51   ar
   105    47    46    1
   106    33    32    1
   107    33    34    1
   108    21    20    1
   109    21    22    1
   110    30    32   am
   111    30    29    1
   112    46    45    1
   113    29    28    1
   114    45    39   am
   115    37    34   am
   116    37    38    1
   117    34    35    2
   118    41    38    1
   119    41    42    1
   120    22    23    2
   121    38    39    1
   122    39    40    2
   123    42    43   ar
   124    42    44   ar
