@<TRIPOS>MOLECULE
tmp/8icnC00.pdb
 98 92 0 0 0
SMALL
GASTEIGER

@<TRIPOS>ATOM
      1  N         76.9450   35.6760   46.4850 N.3   171  GLY171     -0.1210
      2  CA        76.6030   36.2720   47.7800 C.3   171  GLY171      0.1956
      3  C         77.6210   37.2620   48.2660 C.2   171  GLY171      0.2612
      4  O         78.4990   37.6850   47.5140 O.2   171  GLY171     -0.2717
      5  N         77.4700   37.6220   49.5370 N.am  172  SER172     -0.1952
      6  CA        78.3380   38.5640   50.2340 C.3   172  SER172      0.1924
      7  C         79.7110   37.9520   50.3970 C.2   172  SER172      0.2314
      8  O         80.7230   38.6530   50.4680 O.2   172  SER172     -0.2863
      9  CB        77.7870   38.8230   51.5930 C.3   172  SER172      0.2116
     10  OG        77.3240   37.5550   52.0420 O.3   172  SER172     -0.2180
     11  N         81.5890   39.0050   47.6940 N.3   175  ARG175     -0.1245
     12  CA        81.8470   40.4410   47.8350 C.3   175  ARG175      0.1563
     13  C         82.7790   40.7860   49.0100 C.2   175  ARG175      0.2260
     14  O         82.7190   41.9250   49.4620 O.2   175  ARG175     -0.2867
     15  CB        80.5560   41.1570   48.1990 C.3   175  ARG175      0.0307
     16  CG        79.5950   41.5130   47.0920 C.3   175  ARG175      0.0489
     17  CD        78.4260   42.2060   47.7530 C.3   175  ARG175      0.2205
     18  NE        77.8480   41.4030   48.8340 N.pl3 175  ARG175     -0.0865
     19  CZ        76.6540   41.6430   49.4070 C.cat 175  ARG175      0.5346
     20  NH1       75.8850   42.6530   49.0200 N.pl3 175  ARG175      0.1354
     21  NH2       76.2040   40.8500   50.3870 N.pl3 175  ARG175      0.1354
     22  N         74.3140   31.7720   54.6950 N.3   182  ASP182     -0.1239
     23  CA        74.2790   30.4860   54.0190 C.3   182  ASP182      0.1674
     24  C         75.0270   30.5940   52.7190 C.2   182  ASP182      0.2266
     25  O         75.2900   31.6730   52.1620 O.2   182  ASP182     -0.2867
     26  CB        72.8520   30.1440   53.6190 C.3   182  ASP182      0.1410
     27  CG        72.3010   31.2530   52.7690 C.2   182  ASP182      0.3668
     28  OD1       72.8430   32.3330   52.7140 O.co2 182  ASP182     -0.2456
     29  OD2       71.1830   30.9590   52.1200 O.co2 182  ASP182     -0.2456
     30  N         75.5690   30.1900   48.6890 N.3   184  ASP184     -0.1239
     31  CA        74.9010   30.1240   47.3990 C.3   184  ASP184      0.1674
     32  C         75.7680   29.6800   46.2890 C.2   184  ASP184      0.2266
     33  O         76.4480   30.4710   45.7440 O.2   184  ASP184     -0.2867
     34  CB        74.5240   31.4690   46.8220 C.3   184  ASP184      0.1410
     35  CG        73.0690   31.7190   46.8550 C.2   184  ASP184      0.3668
     36  OD1       72.2810   31.3260   46.0140 O.co2 184  ASP184     -0.2456
     37  OD2       72.7530   32.2570   47.9810 O.co2 184  ASP184     -0.2456
     38  N         72.3610   26.2720   49.0240 N.3   248  ASP248     -0.1239
     39  CA        71.4990   26.3590   47.8600 C.3   248  ASP248      0.1674
     40  C         72.3290   26.1970   46.6440 C.2   248  ASP248      0.2266
     41  O         73.3410   26.7960   46.4840 O.2   248  ASP248     -0.2867
     42  CB        70.5020   27.5480   47.7340 C.3   248  ASP248      0.1410
     43  CG        69.5060   27.6680   48.8770 C.2   248  ASP248      0.3668
     44  OD1       68.7920   26.7420   49.2240 O.co2 248  ASP248     -0.2456
     45  OD2       69.5900   28.8210   49.5550 O.co2 248  ASP248     -0.2456
     46  N         72.0470   25.9520   42.3520 N.3   250  ARG250     -0.1245
     47  CA        71.1570   26.1060   41.2100 C.3   250  ARG250      0.1563
     48  C         71.7570   25.9830   39.8360 C.2   250  ARG250      0.2260
     49  O         72.7350   26.6510   39.5400 O.2   250  ARG250     -0.2867
     50  CB        70.5110   27.4700   41.3260 C.3   250  ARG250      0.0307
     51  CG        71.4790   28.4910   41.9140 C.3   250  ARG250      0.0489
     52  CD        70.8520   29.4140   42.9800 C.3   250  ARG250      0.2205
     53  NE        69.5240   29.9430   42.6130 N.pl3 250  ARG250     -0.0865
     54  CZ        68.8190   30.8350   43.3180 C.cat 250  ARG250      0.5346
     55  NH1       69.2520   31.3730   44.4620 N.pl3 250  ARG250      0.1354
     56  NH2       67.6370   31.1970   42.8430 N.pl3 250  ARG250      0.1354
     57  N         74.1550   39.2120   39.1150 N.3   263  TYR263     -0.1227
     58  CA        73.0200   39.4850   39.9500 C.3   263  TYR263      0.1736
     59  C         73.0750   39.0960   41.4300 C.2   263  TYR263      0.2595
     60  O         73.0330   39.9520   42.3300 O.2   263  TYR263     -0.2718
     61  CB        71.9520   38.7350   39.2500 C.3   263  TYR263      0.0548
     62  CG        70.7110   38.8480   39.9940 C.ar  263  TYR263     -0.0200
     63  CD1       70.0240   40.0580   40.0050 C.ar  263  TYR263     -0.0009
     64  CD2       70.2420   37.7230   40.6730 C.ar  263  TYR263     -0.0009
     65  CE1       68.8380   40.1520   40.7150 C.ar  263  TYR263      0.0417
     66  CE2       69.0450   37.8010   41.3780 C.ar  263  TYR263      0.0417
     67  CZ        68.3650   39.0230   41.3860 C.ar  263  TYR263      0.1957
     68  OH        67.1890   39.1080   42.0850 O.3   263  TYR263     -0.2866
     69  N         73.1650   37.7770   41.6600 N.am  264  PHE264     -0.1962
     70  CA        73.2650   37.1960   42.9790 C.3   264  PHE264      0.1771
     71  C         74.5240   37.7070   43.6560 C.2   264  PHE264      0.2620
     72  O         74.7170   37.5050   44.8300 O.2   264  PHE264     -0.2715
     73  CB        73.3210   35.6890   42.9470 C.3   264  PHE264      0.0574
     74  CG        71.9890   35.1040   42.6050 C.ar  264  PHE264     -0.0200
     75  CD1       70.9860   35.0560   43.5460 C.ar  264  PHE264     -0.0042
     76  CD2       71.7260   34.5760   41.3340 C.ar  264  PHE264     -0.0042
     77  CE1       69.7240   34.5310   43.3070 C.ar  264  PHE264     -0.0003
     78  CE2       70.4720   34.0330   41.0550 C.ar  264  PHE264     -0.0003
     79  CZ        69.4760   34.0160   42.0500 C.ar  264  PHE264     -0.0000
     80  N         75.4360   38.3470   42.9250 N.am  265  THR265     -0.1937
     81  CA        76.6190   38.8470   43.6100 C.3   265  THR265      0.2028
     82  C         76.2910   40.1160   44.3500 C.2   265  THR265      0.2642
     83  O         76.8900   40.4030   45.3580 O.2   265  THR265     -0.2714
     84  CB        77.9520   38.8950   42.8660 C.3   265  THR265      0.1808
     85  OG1       78.3210   37.5650   42.6140 O.3   265  THR265     -0.2208
     86  CG2       79.0250   39.5030   43.7720 C.3   265  THR265      0.0379
     87  N         75.3130   40.8560   43.8460 N.am  266  GLY266     -0.1954
     88  CA        74.9050   42.0840   44.4890 C.3   266  GLY266      0.1869
     89  C         76.0130   43.1150   44.4630 C.2   266  GLY266      0.2309
     90  O         76.9090   43.0300   43.6100 O.2   266  GLY266     -0.2863
     91  N         72.5670   44.5780   46.6750 N.3   268  ASP268     -0.1239
     92  CA        71.2230   44.9800   46.3140 C.3   268  ASP268      0.1674
     93  C         71.2670   46.3520   45.6530 C.2   268  ASP268      0.2266
     94  O         70.6070   46.5820   44.6440 O.2   268  ASP268     -0.2867
     95  CB        70.1730   44.7780   47.4530 C.3   268  ASP268      0.1410
     96  CG        69.7550   43.3140   47.6520 C.2   268  ASP268      0.3668
     97  OD1       69.7630   42.4970   46.7410 O.co2 268  ASP268     -0.2456
     98  OD2       69.3780   42.9990   48.8870 O.co2 268  ASP268     -0.2456
@<TRIPOS>BOND
     1    57    58    1
     2    61    58    1
     3    61    62    1
     4    49    48    2
     5    48    47    1
     6    58    59    1
     7    62    63   ar
     8    62    64   ar
     9    63    65   ar
    10    64    66   ar
    11    65    67   ar
    12    78    76   ar
    13    78    79   ar
    14    47    50    1
    15    47    46    1
    16    50    51    1
    17    76    74   ar
    18    66    67   ar
    19    67    68    1
    20    59    69   am
    21    59    60    2
    22    69    70    1
    23    51    52    1
    24    79    77   ar
    25    74    73    1
    26    74    75   ar
    27    53    52    1
    28    53    54    2
    29    85    84    1
    30    56    54    1
    31    84    81    1
    32    84    86    1
    33    80    81    1
    34    80    71   am
    35    73    70    1
    36    70    71    1
    37    77    75   ar
    38    54    55    1
    39    90    89    2
    40    81    82    1
    41    71    72    2
    42    87    82   am
    43    87    88    1
    44    82    83    2
    45    89    88    1
    46    94    93    2
    47    93    92    1
    48    33    32    2
    49    36    35   ar
    50    32    31    1
    51    92    91    1
    52    92    95    1
    53    41    40    2
    54     1     2    1
    55    40    39    1
    56    97    96   ar
    57    34    35    1
    58    34    31    1
    59    35    37   ar
    60    16    17    1
    61    16    15    1
    62    31    30    1
    63    95    96    1
    64     4     3    2
    65    96    98   ar
    66    11    12    1
    67    42    39    1
    68    42    43    1
    69    17    18    1
    70     2     3    1
    71    12    15    1
    72    12    13    1
    73    39    38    1
    74     3     5   am
    75    18    19    2
    76    43    44   ar
    77    43    45   ar
    78    13    14    2
    79    20    19    1
    80    19    21    1
    81     5     6    1
    82     6     7    1
    83     6     9    1
    84     7     8    2
    85     9    10    1
    86    29    27   ar
    87    25    24    2
    88    28    27   ar
    89    24    23    1
    90    27    26    1
    91    26    23    1
    92    23    22    1
