@<TRIPOS>MOLECULE
tmp/8icoC00.pdb
 119 112 0 0 0
SMALL
GASTEIGER

@<TRIPOS>ATOM
      1  N         75.7390   32.6830   62.1490 N.3   141  ARG141     -0.1245
      2  CA        76.3730   33.2030   60.9670 C.3   141  ARG141      0.1563
      3  C         77.5100   32.2990   60.5440 C.2   141  ARG141      0.2260
      4  O         77.9930   31.5190   61.3680 O.2   141  ARG141     -0.2867
      5  CB        76.8540   34.5820   61.2730 C.3   141  ARG141      0.0307
      6  CG        75.6780   35.4630   61.6530 C.3   141  ARG141      0.0489
      7  CD        74.9100   35.9360   60.4280 C.3   141  ARG141      0.2205
      8  NE        75.8080   36.3110   59.3300 N.pl3 141  ARG141     -0.0865
      9  CZ        75.3960   36.8560   58.1810 C.cat 141  ARG141      0.5346
     10  NH1       74.0960   37.1050   57.9680 N.pl3 141  ARG141      0.1354
     11  NH2       76.3030   37.1690   57.2400 N.pl3 141  ARG141      0.1354
     12  N         76.8570   35.3320   46.4770 N.3   171  GLY171     -0.1210
     13  CA        76.6000   35.9290   47.7930 C.3   171  GLY171      0.1956
     14  C         77.6600   36.8850   48.3220 C.2   171  GLY171      0.2612
     15  O         78.6170   37.2320   47.6180 O.2   171  GLY171     -0.2717
     16  N         77.4530   37.2980   49.5940 N.am  172  SER172     -0.1952
     17  CA        78.3050   38.2110   50.3650 C.3   172  SER172      0.1924
     18  C         79.7030   37.6410   50.4990 C.2   172  SER172      0.2314
     19  O         80.7100   38.3650   50.5390 O.2   172  SER172     -0.2863
     20  CB        77.7240   38.4120   51.7240 C.3   172  SER172      0.2116
     21  OG        77.4430   37.1190   52.2010 O.3   172  SER172     -0.2180
     22  N         81.4580   38.7780   47.8030 N.3   175  ARG175     -0.1245
     23  CA        81.6860   40.1980   48.0050 C.3   175  ARG175      0.1563
     24  C         82.6090   40.5330   49.1650 C.2   175  ARG175      0.2260
     25  O         82.5080   41.6530   49.6850 O.2   175  ARG175     -0.2867
     26  CB        80.4180   40.9160   48.3170 C.3   175  ARG175      0.0307
     27  CG        79.5990   41.2140   47.1210 C.3   175  ARG175      0.0489
     28  CD        78.3610   41.8750   47.6390 C.3   175  ARG175      0.2205
     29  NE        78.0290   41.3490   48.9530 N.pl3 175  ARG175     -0.0865
     30  CZ        76.7850   41.3020   49.4340 C.cat 175  ARG175      0.5346
     31  NH1       75.7460   41.7260   48.7290 N.pl3 175  ARG175      0.1354
     32  NH2       76.5630   40.8080   50.6460 N.pl3 175  ARG175      0.1354
     33  N         78.8660   34.8450   56.4680 N.3   180  SER180     -0.1202
     34  CA        77.7070   34.8470   55.6330 C.3   180  SER180      0.2020
     35  C         76.6640   33.9860   56.2930 C.2   180  SER180      0.2619
     36  O         76.9500   33.1820   57.1900 O.2   180  SER180     -0.2717
     37  CB        78.0480   34.4180   54.2150 C.3   180  SER180      0.2103
     38  OG        79.4500   34.4750   54.0700 O.3   180  SER180     -0.2182
     39  N         75.4550   34.1720   55.8480 N.am  181  GLY181     -0.1942
     40  CA        74.3410   33.4400   56.3890 C.3   181  GLY181      0.2014
     41  C         74.1870   32.0400   55.8920 C.2   181  GLY181      0.2638
     42  O         73.8830   31.1490   56.6610 O.2   181  GLY181     -0.2714
     43  N         74.4010   31.8740   54.6030 N.am  182  ASP182     -0.1971
     44  CA        74.2900   30.5980   53.9600 C.3   182  ASP182      0.1709
     45  C         75.0540   30.6110   52.6810 C.2   182  ASP182      0.2293
     46  O         75.2880   31.6770   52.1130 O.2   182  ASP182     -0.2864
     47  CB        72.8420   30.4470   53.6330 C.3   182  ASP182      0.1436
     48  CG        72.4200   31.3840   52.5590 C.2   182  ASP182      0.3671
     49  OD1       72.8290   32.5140   52.4170 O.co2 182  ASP182     -0.2456
     50  OD2       71.4580   30.8690   51.8550 O.co2 182  ASP182     -0.2456
     51  N         75.5640   30.0710   48.7160 N.3   184  ASP184     -0.1239
     52  CA        74.9070   29.9730   47.3980 C.3   184  ASP184      0.1674
     53  C         75.8770   29.5240   46.3350 C.2   184  ASP184      0.2266
     54  O         76.7680   30.2610   45.9550 O.2   184  ASP184     -0.2867
     55  CB        74.5590   31.3310   46.8040 C.3   184  ASP184      0.1410
     56  CG        73.2820   31.9420   47.2270 C.2   184  ASP184      0.3668
     57  OD1       73.4480   32.7510   48.2710 O.co2 184  ASP184     -0.2456
     58  OD2       72.2640   31.8140   46.5590 O.co2 184  ASP184     -0.2456
     59  N         72.1790   25.7190   42.3640 N.3   250  ARG250     -0.1245
     60  CA        71.2650   25.8660   41.2240 C.3   250  ARG250      0.1563
     61  C         71.9080   25.8340   39.8320 C.2   250  ARG250      0.2260
     62  O         72.8750   26.5390   39.5620 O.2   250  ARG250     -0.2867
     63  CB        70.3960   27.1080   41.4330 C.3   250  ARG250      0.0307
     64  CG        71.2230   28.3740   41.6000 C.3   250  ARG250      0.0489
     65  CD        70.7470   29.3240   42.7150 C.3   250  ARG250      0.2205
     66  NE        69.3940   29.8760   42.5820 N.pl3 250  ARG250     -0.0865
     67  CZ        68.7660   30.4390   43.6150 C.cat 250  ARG250      0.5346
     68  NH1       69.3480   30.5270   44.8160 N.pl3 250  ARG250      0.1354
     69  NH2       67.5340   30.9250   43.4410 N.pl3 250  ARG250      0.1354
     70  N         74.1100   39.0080   39.3200 N.3   263  TYR263     -0.1227
     71  CA        72.9540   39.1780   40.1040 C.3   263  TYR263      0.1736
     72  C         72.9450   38.6920   41.5590 C.2   263  TYR263      0.2595
     73  O         72.5410   39.4060   42.4640 O.2   263  TYR263     -0.2718
     74  CB        71.9180   38.4990   39.2860 C.3   263  TYR263      0.0548
     75  CG        70.7150   38.5710   40.0590 C.ar  263  TYR263     -0.0200
     76  CD1       70.0380   39.7790   40.0660 C.ar  263  TYR263     -0.0009
     77  CD2       70.2700   37.4750   40.7990 C.ar  263  TYR263     -0.0009
     78  CE1       68.8700   39.8970   40.8050 C.ar  263  TYR263      0.0417
     79  CE2       69.0890   37.5760   41.5380 C.ar  263  TYR263      0.0417
     80  CZ        68.4100   38.7960   41.5290 C.ar  263  TYR263      0.1957
     81  OH        67.2630   38.9540   42.2400 O.3   263  TYR263     -0.2866
     82  N         73.3590   37.4540   41.7720 N.am  264  PHE264     -0.1962
     83  CA        73.4330   36.8490   43.0800 C.3   264  PHE264      0.1771
     84  C         74.6680   37.3180   43.8180 C.2   264  PHE264      0.2620
     85  O         74.8810   36.9460   44.9780 O.2   264  PHE264     -0.2715
     86  CB        73.3760   35.3480   43.1220 C.3   264  PHE264      0.0574
     87  CG        72.0230   34.8580   42.8610 C.ar  264  PHE264     -0.0200
     88  CD1       71.0290   35.0350   43.8110 C.ar  264  PHE264     -0.0042
     89  CD2       71.7420   34.1980   41.6690 C.ar  264  PHE264     -0.0042
     90  CE1       69.7410   34.5560   43.5660 C.ar  264  PHE264     -0.0003
     91  CE2       70.4550   33.7170   41.4140 C.ar  264  PHE264     -0.0003
     92  CZ        69.4590   33.9030   42.3660 C.ar  264  PHE264     -0.0000
     93  N         75.5150   38.1010   43.1590 N.am  265  THR265     -0.1937
     94  CA        76.6610   38.5740   43.8930 C.3   265  THR265      0.2028
     95  C         76.2320   39.8590   44.6020 C.2   265  THR265      0.2642
     96  O         76.9080   40.3340   45.4980 O.2   265  THR265     -0.2714
     97  CB        78.0020   38.6940   43.1450 C.3   265  THR265      0.1808
     98  OG1       78.4680   37.3970   42.8530 O.3   265  THR265     -0.2208
     99  CG2       79.0640   39.3760   44.0240 C.3   265  THR265      0.0379
    100  N         75.0730   40.4150   44.1890 N.am  266  GLY266     -0.1954
    101  CA        74.5550   41.6340   44.7730 C.3   266  GLY266      0.1869
    102  C         75.6400   42.7100   44.7550 C.2   266  GLY266      0.2309
    103  O         76.5330   42.7080   43.9130 O.2   266  GLY266     -0.2863
    104  N         72.2590   44.3220   46.9220 N.3   268  ASP268     -0.1239
    105  CA        70.9950   44.8290   46.4500 C.3   268  ASP268      0.1674
    106  C         71.1530   46.1590   45.7820 C.2   268  ASP268      0.2266
    107  O         70.5080   46.4620   44.7800 O.2   268  ASP268     -0.2867
    108  CB        69.9470   44.8730   47.5590 C.3   268  ASP268      0.1410
    109  CG        69.4240   43.4890   47.7360 C.2   268  ASP268      0.3668
    110  OD1       69.4290   42.7020   46.8060 O.co2 268  ASP268     -0.2456
    111  OD2       69.1080   43.1820   48.9780 O.co2 268  ASP268     -0.2456
    112  N         73.3280   46.2490   42.6320 N.3   271  ASN271     -0.1240
    113  CA        72.4300   45.7140   41.6710 C.3   271  ASN271      0.1653
    114  C         71.6020   46.7230   40.9900 C.2   271  ASN271      0.2266
    115  O         71.7150   46.8860   39.7730 O.2   271  ASN271     -0.2867
    116  CB        71.6290   44.5210   42.1760 C.3   271  ASN271      0.1155
    117  CG        72.4160   43.2430   41.9180 C.2   271  ASN271      0.2627
    118  OD1       72.2340   42.2280   42.6090 O.2   271  ASN271     -0.2716
    119  ND2       73.3090   43.2860   40.9190 N.am  271  ASN271     -0.0877
@<TRIPOS>BOND
     1    74    75    1
     2    74    71    1
     3    70    71    1
     4    62    61    2
     5   115   114    2
     6    61    60    1
     7    75    76   ar
     8    75    77   ar
     9    76    78   ar
    10    71    72    1
    11    77    79   ar
    12    78    80   ar
    13   119   117   am
    14   114   113    1
    15    60    63    1
    16    60    59    1
    17    91    89   ar
    18    91    92   ar
    19    63    64    1
    20    80    79   ar
    21    80    81    1
    22    72    82   am
    23    72    73    2
    24    64    65    1
    25    89    87   ar
    26   113   116    1
    27   113   112    1
    28    82    83    1
    29   117   116    1
    30   117   118    2
    31    92    90   ar
    32    66    65    1
    33    66    67    2
    34    98    97    1
    35    87    86    1
    36    87    88   ar
    37    83    86    1
    38    83    84    1
    39    97    94    1
    40    97    99    1
    41    93    84   am
    42    93    94    1
    43    69    67    1
    44    90    88   ar
    45    67    68    1
    46    84    85    2
    47    94    95    1
    48   103   102    2
    49   100    95   am
    50   100   101    1
    51    95    96    2
    52   102   101    1
    53   107   106    2
    54   106   105    1
    55    54    53    2
    56    53    52    1
    57   105   104    1
    58   105   108    1
    59    12    13    1
    60    58    56   ar
    61    55    56    1
    62    55    52    1
    63   110   109   ar
    64    27    28    1
    65    27    26    1
    66    56    57   ar
    67    52    51    1
    68   108   109    1
    69    15    14    2
    70    28    29    1
    71   109   111   ar
    72    13    14    1
    73    22    23    1
    74    23    26    1
    75    23    24    1
    76    14    16   am
    77    31    30    1
    78    29    30    2
    79    24    25    2
    80    30    32    1
    81    16    17    1
    82    17    18    1
    83    17    20    1
    84    18    19    2
    85    20    21    1
    86    50    48   ar
    87    46    45    2
    88    49    48   ar
    89    48    47    1
    90    45    44    1
    91    47    44    1
    92    44    43    1
    93    38    37    1
    94    37    34    1
    95    43    41   am
    96    34    35    1
    97    34    33    1
    98    39    35   am
    99    39    40    1
   100    41    40    1
   101    41    42    2
   102    35    36    2
   103    11     9    1
   104    10     9    1
   105     9     8    2
   106     8     7    1
   107     7     6    1
   108     3     2    1
   109     3     4    2
   110     2     5    1
   111     2     1    1
   112     5     6    1
