@<TRIPOS>MOLECULE
tmp/8icsC00.pdb
 91 86 0 0 0
SMALL
GASTEIGER

@<TRIPOS>ATOM
      1  N         75.3330   32.5210   62.1620 N.3   141  ARG141     -0.1245
      2  CA        75.9690   33.0540   60.9790 C.3   141  ARG141      0.1563
      3  C         77.0820   32.1350   60.4580 C.2   141  ARG141      0.2260
      4  O         77.5740   31.2080   61.1270 O.2   141  ARG141     -0.2867
      5  CB        76.4840   34.4550   61.3000 C.3   141  ARG141      0.0307
      6  CG        75.3550   35.4340   61.6640 C.3   141  ARG141      0.0489
      7  CD        74.5930   35.9170   60.4230 C.3   141  ARG141      0.2205
      8  NE        75.5120   36.3070   59.3370 N.pl3 141  ARG141     -0.0865
      9  CZ        75.1300   36.6210   58.1020 C.cat 141  ARG141      0.5346
     10  NH1       73.8470   36.6060   57.7670 N.pl3 141  ARG141      0.1354
     11  NH2       76.0490   36.9550   57.1830 N.pl3 141  ARG141      0.1354
     12  N         76.8140   35.3310   46.5690 N.3   171  GLY171     -0.1210
     13  CA        76.3970   36.0310   47.7990 C.3   171  GLY171      0.1956
     14  C         77.4270   37.0320   48.3240 C.2   171  GLY171      0.2613
     15  O         78.3230   37.5330   47.6200 O.2   171  GLY171     -0.2717
     16  N         77.3010   37.3300   49.5950 N.am  172  SER172     -0.1938
     17  CA        78.2110   38.2570   50.2570 C.3   172  SER172      0.2055
     18  C         79.5540   37.5830   50.4030 C.2   172  SER172      0.2643
     19  O         80.5980   38.2160   50.5240 O.2   172  SER172     -0.2714
     20  CB        77.6880   38.7040   51.6200 C.3   172  SER172      0.2130
     21  OG        76.8720   37.6500   52.1300 O.3   172  SER172     -0.2179
     22  N         79.4830   36.2770   50.4170 N.am  173  PHE173     -0.1973
     23  CA        80.6480   35.4880   50.5530 C.3   173  PHE173      0.1639
     24  C         81.5350   35.8360   49.4480 C.2   173  PHE173      0.2290
     25  O         82.6950   36.0800   49.6460 O.2   173  PHE173     -0.2864
     26  CB        80.2930   34.0750   50.3930 C.3   173  PHE173      0.0560
     27  CG        81.5080   33.4490   49.9300 C.ar  173  PHE173     -0.0200
     28  CD1       82.5670   33.3400   50.8210 C.ar  173  PHE173     -0.0042
     29  CD2       81.6230   32.9620   48.6290 C.ar  173  PHE173     -0.0042
     30  CE1       83.7440   32.7190   50.3980 C.ar  173  PHE173     -0.0003
     31  CE2       82.7940   32.3360   48.2100 C.ar  173  PHE173     -0.0003
     32  CZ        83.8600   32.2160   49.0980 C.ar  173  PHE173     -0.0000
     33  N         81.0300   38.4350   47.7180 N.3   175  ARG175     -0.1245
     34  CA        81.2460   39.8630   47.9370 C.3   175  ARG175      0.1563
     35  C         82.2130   40.2830   49.0680 C.2   175  ARG175      0.2260
     36  O         82.1200   41.4490   49.4720 O.2   175  ARG175     -0.2867
     37  CB        79.9480   40.5370   48.2480 C.3   175  ARG175      0.0307
     38  CG        79.4420   41.5050   47.2260 C.3   175  ARG175      0.0489
     39  CD        78.1760   42.0700   47.8050 C.3   175  ARG175      0.2205
     40  NE        77.5990   41.1350   48.7830 N.pl3 175  ARG175     -0.0865
     41  CZ        76.3310   41.1360   49.2340 C.cat 175  ARG175      0.5346
     42  NH1       75.4290   42.0100   48.8260 N.pl3 175  ARG175      0.1354
     43  NH2       75.9360   40.2420   50.1190 N.pl3 175  ARG175      0.1354
     44  N         78.3360   34.8780   56.6410 N.3   180  SER180     -0.1202
     45  CA        77.2480   34.8000   55.6720 C.3   180  SER180      0.2020
     46  C         76.1410   33.9320   56.1970 C.2   180  SER180      0.2619
     47  O         76.3500   33.0250   57.0080 O.2   180  SER180     -0.2717
     48  CB        77.6310   34.3150   54.2930 C.3   180  SER180      0.2103
     49  OG        79.0350   34.1670   54.1530 O.3   180  SER180     -0.2182
     50  N         74.9440   34.2090   55.7200 N.am  181  GLY181     -0.1942
     51  CA        73.7660   33.4510   56.1480 C.3   181  GLY181      0.2014
     52  C         73.6660   31.9560   55.7320 C.2   181  GLY181      0.2638
     53  O         73.2430   31.1150   56.5300 O.2   181  GLY181     -0.2714
     54  N         74.0400   31.6510   54.4850 N.am  182  ASP182     -0.1971
     55  CA        74.0230   30.3220   53.9060 C.3   182  ASP182      0.1709
     56  C         74.7050   30.3620   52.5710 C.2   182  ASP182      0.2293
     57  O         74.8110   31.3790   51.9000 O.2   182  ASP182     -0.2864
     58  CB        72.6200   29.8100   53.6890 C.3   182  ASP182      0.1436
     59  CG        71.8190   30.8720   53.0160 C.2   182  ASP182      0.3671
     60  OD1       72.2950   31.9580   52.7660 O.co2 182  ASP182     -0.2456
     61  OD2       70.5570   30.5350   52.7830 O.co2 182  ASP182     -0.2456
     62  N         75.1860   29.8310   48.7010 N.3   184  ASP184     -0.1239
     63  CA        74.5030   29.7710   47.4230 C.3   184  ASP184      0.1674
     64  C         75.4500   29.3870   46.2930 C.2   184  ASP184      0.2266
     65  O         76.2730   30.2010   45.8320 O.2   184  ASP184     -0.2867
     66  CB        73.9570   31.1520   46.9810 C.3   184  ASP184      0.1410
     67  CG        72.7640   31.6860   47.7190 C.2   184  ASP184      0.3668
     68  OD1       71.6110   31.2890   47.5200 O.co2 184  ASP184     -0.2456
     69  OD2       73.0940   32.6220   48.6020 O.co2 184  ASP184     -0.2456
     70  N         71.9250   25.6110   42.5420 N.3   250  ARG250     -0.1245
     71  CA        70.9890   25.8820   41.4150 C.3   250  ARG250      0.1563
     72  C         71.5550   25.6520   39.9930 C.2   250  ARG250      0.2260
     73  O         72.6440   26.1040   39.6060 O.2   250  ARG250     -0.2867
     74  CB        70.2690   27.2000   41.5440 C.3   250  ARG250      0.0307
     75  CG        71.1820   28.2600   42.1230 C.3   250  ARG250      0.0489
     76  CD        70.4730   29.2820   43.0360 C.3   250  ARG250      0.2205
     77  NE        69.1550   29.7450   42.5560 N.pl3 250  ARG250     -0.0865
     78  CZ        68.3350   30.5020   43.2800 C.cat 250  ARG250      0.5346
     79  NH1       68.6330   30.9180   44.5230 N.pl3 250  ARG250      0.1354
     80  NH2       67.1770   30.8400   42.7350 N.pl3 250  ARG250      0.1354
     81  N         72.9960   37.5490   41.5760 N.3   264  PHE264     -0.1241
     82  CA        73.0690   37.0570   42.9260 C.3   264  PHE264      0.1605
     83  C         74.2050   37.6740   43.7050 C.2   264  PHE264      0.2264
     84  O         74.0690   37.8490   44.9120 O.2   264  PHE264     -0.2867
     85  CB        73.2210   35.5780   42.9580 C.3   264  PHE264      0.0534
     86  CG        71.9000   34.9160   42.8220 C.ar  264  PHE264     -0.0203
     87  CD1       70.8700   35.2380   43.7010 C.ar  264  PHE264     -0.0042
     88  CD2       71.6940   33.9400   41.8470 C.ar  264  PHE264     -0.0042
     89  CE1       69.6390   34.5920   43.5890 C.ar  264  PHE264     -0.0003
     90  CE2       70.4640   33.3000   41.7240 C.ar  264  PHE264     -0.0003
     91  CZ        69.4280   33.6270   42.6030 C.ar  264  PHE264     -0.0000
@<TRIPOS>BOND
     1    73    72    2
     2    72    71    1
     3    71    74    1
     4    71    70    1
     5    74    75    1
     6    81    82    1
     7    90    88   ar
     8    90    91   ar
     9    88    86   ar
    10    75    76    1
    11    77    76    1
    12    77    78    2
    13    91    89   ar
    14    80    78    1
    15    86    85    1
    16    86    87   ar
    17    82    85    1
    18    82    83    1
    19    78    79    1
    20    89    87   ar
    21    83    84    2
    22    65    64    2
    23    64    63    1
    24    12    13    1
    25    66    63    1
    26    66    67    1
    27    38    39    1
    28    38    37    1
    29    63    62    1
    30    68    67   ar
    31    15    14    2
    32    33    34    1
    33    67    69   ar
    34    13    14    1
    35    39    40    1
    36    34    37    1
    37    34    35    1
    38    31    29   ar
    39    31    32   ar
    40    14    16   am
    41    29    27   ar
    42    40    41    2
    43    42    41    1
    44    35    36    2
    45    32    30   ar
    46    41    43    1
    47    24    25    2
    48    24    23    1
    49    16    17    1
    50    27    26    1
    51    27    28   ar
    52    17    18    1
    53    17    20    1
    54    26    23    1
    55    30    28   ar
    56    18    22   am
    57    18    19    2
    58    22    23    1
    59    20    21    1
    60    57    56    2
    61    56    55    1
    62    60    59   ar
    63    61    59   ar
    64    59    58    1
    65    58    55    1
    66    55    54    1
    67    49    48    1
    68    48    45    1
    69    54    52   am
    70    45    46    1
    71    45    44    1
    72    50    51    1
    73    50    46   am
    74    52    51    1
    75    52    53    2
    76    46    47    2
    77    11     9    1
    78    10     9    1
    79     9     8    2
    80     8     7    1
    81     7     6    1
    82     3     2    1
    83     3     4    2
    84     2     5    1
    85     2     1    1
    86     5     6    1
