@<TRIPOS>MOLECULE
tmp/8kmeB01.pdb
 218 212 0 0 0
SMALL
GASTEIGER

@<TRIPOS>ATOM
      1  N         22.5320   -6.9140   18.5460 N.3    43  HIS43      -0.1241
      2  CA        22.4700   -8.3280   18.1760 C.3    43  HIS43       0.1621
      3  C         21.6810   -8.5630   16.8990 C.2    43  HIS43       0.2264
      4  O         21.3890   -9.7310   16.5870 O.2    43  HIS43      -0.2867
      5  CB        21.9260   -9.1930   19.3300 C.3    43  HIS43       0.0745
      6  CG        20.4570   -9.3560   19.3510 C.ar   43  HIS43       0.0817
      7  ND1       19.6150   -8.6950   20.2150 N.ar   43  HIS43      -0.2268
      8  CD2       19.6730  -10.0710   18.5000 C.ar   43  HIS43       0.1154
      9  CE1       18.3540   -9.0150   19.9140 C.ar   43  HIS43       0.1986
     10  NE2       18.3700   -9.8680   18.9080 N.ar   43  HIS43      -0.2212
     11  N         26.0060  -11.1010   15.6130 N.3    47  TYR47      -0.1241
     12  CA        25.7150  -12.2600   16.4540 C.3    47  TYR47       0.1605
     13  C         26.4460  -13.4520   15.8230 C.2    47  TYR47       0.2264
     14  O         25.7920  -14.2580   15.1760 O.2    47  TYR47      -0.2867
     15  CB        24.2430  -12.5830   16.5700 C.3    47  TYR47       0.0534
     16  CG        23.9800  -13.5270   17.7140 C.ar   47  TYR47      -0.0201
     17  CD1       24.4920  -13.2540   18.9910 C.ar   47  TYR47      -0.0009
     18  CD2       23.2040  -14.6660   17.5090 C.ar   47  TYR47      -0.0009
     19  CE1       24.2250  -14.1330   20.0490 C.ar   47  TYR47       0.0417
     20  CE2       22.9080  -15.5230   18.5690 C.ar   47  TYR47       0.0417
     21  CZ        23.3980  -15.2380   19.8360 C.ar   47  TYR47       0.1957
     22  OH        23.0660  -16.1070   20.8360 O.3    47  TYR47      -0.2866
     23  N         25.2880  -17.2260   15.3520 N.3    50  TRP50      -0.1241
     24  CA        24.3250  -17.5490   14.2800 C.3    50  TRP50       0.1605
     25  C         24.8450  -17.0560   12.9310 C.2    50  TRP50       0.2264
     26  O         24.0740  -16.9190   11.9700 O.2    50  TRP50      -0.2867
     27  CB        23.0090  -16.8290   14.5130 C.3    50  TRP50       0.0550
     28  CG        22.1260  -17.4640   15.5740 C.ar   50  TRP50       0.0003
     29  CD1       22.3900  -18.5460   16.3230 C.ar   50  TRP50       0.0946
     30  CD2       20.8570  -16.9700   15.9340 C.ar   50  TRP50       0.0152
     31  NE1       21.2450  -18.7550   17.1630 N.ar   50  TRP50      -0.2442
     32  CE2       20.3520  -17.8210   16.9070 C.ar   50  TRP50       0.0810
     33  CE3       20.0930  -15.8830   15.5010 C.ar   50  TRP50       0.0012
     34  CZ2       19.0810  -17.6550   17.4710 C.ar   50  TRP50       0.0191
     35  CZ3       18.8210  -15.7200   16.0800 C.ar   50  TRP50       0.0001
     36  CH2       18.3370  -16.5670   17.0180 C.ar   50  TRP50       0.0015
     37  N         25.7190  -14.2500   12.1790 N.3    52  LYS52      -0.1245
     38  CA        25.1700  -12.9290   11.8160 C.3    52  LYS52       0.1561
     39  C         26.2450  -11.8350   11.9580 C.2    52  LYS52       0.2260
     40  O         27.0680  -11.8520   12.8860 O.2    52  LYS52      -0.2867
     41  CB        23.9750  -12.5780   12.7030 C.3    52  LYS52       0.0271
     42  CG        22.6460  -12.6350   11.9410 C.3    52  LYS52       0.0035
     43  CD        21.5560  -11.7720   12.5720 C.3    52  LYS52       0.0206
     44  CE        20.6740  -12.5420   13.5550 C.3    52  LYS52       0.1093
     45  NZ        19.4810  -11.7870   13.9640 N.3    52  LYS52      -0.1314
     46  N         28.1970  -13.8060   26.2230 N.3    94  GLU94      -0.1231
     47  CA        27.5700  -14.3000   27.4550 C.3    94  GLU94       0.1699
     48  C         26.0790  -14.0110   27.5860 C.2    94  GLU94       0.2592
     49  O         25.2380  -14.9060   27.4170 O.2    94  GLU94      -0.2718
     50  CB        28.2420  -13.7510   28.6920 C.3    94  GLU94       0.0402
     51  CG        28.0840  -14.6780   29.8960 C.3    94  GLU94       0.1161
     52  CD        28.8210  -14.1520   31.1160 C.2    94  GLU94       0.3649
     53  OE1       30.0230  -13.7050   30.9920 O.co2  94  GLU94      -0.2457
     54  OE2       28.2430  -14.1530   32.2690 O.co2  94  GLU94      -0.2457
     55  N         25.7020  -12.7820   27.8910 N.am   95  ASN95      -0.1960
     56  CA        24.2690  -12.5260   28.1220 C.3    95  ASN95       0.1819
     57  C         23.6680  -11.3750   27.3010 C.2    95  ASN95       0.2621
     58  O         22.5510  -10.9140   27.5740 O.2    95  ASN95      -0.2715
     59  CB        23.9980  -12.2310   29.6070 C.3    95  ASN95       0.1195
     60  CG        24.9620  -11.2330   30.2600 C.2    95  ASN95       0.2630
     61  OD1       26.1660  -11.4780   30.3120 O.2    95  ASN95      -0.2716
     62  ND2       24.4940  -10.1070   30.7680 N.am   95  ASN95      -0.0877
     63  N         24.3740  -10.9080   26.3000 N.am   96  LEU96      -0.1977
     64  CA        23.8440   -9.8340   25.4420 C.3    96  LEU96       0.1596
     65  C         23.6870   -8.5440   26.2360 C.2    96  LEU96       0.2287
     66  O         22.6870   -7.8230   26.1010 O.2    96  LEU96      -0.2864
     67  CB        22.4660  -10.2320   24.9160 C.3    96  LEU96       0.0297
     68  CG        22.5270  -10.9440   23.5700 C.3    96  LEU96       0.0022
     69  CD1       21.1530  -11.1030   22.9170 C.3    96  LEU96       0.0001
     70  CD2       23.3940  -10.2070   22.5490 C.3    96  LEU96       0.0001
     71  N          5.1620  -17.5480   20.0480 N.3   146  GLU146     -0.1245
     72  CA         6.5940  -17.8950   20.2350 C.3   146  GLU146      0.1567
     73  C          7.1840  -18.5030   18.9570 C.2   146  GLU146      0.2260
     74  O          8.1720  -18.0310   18.3630 O.2   146  GLU146     -0.2867
     75  CB         6.8360  -18.8490   21.3870 C.3   146  GLU146      0.0388
     76  CG         8.2550  -19.4010   21.5620 C.3   146  GLU146      0.1160
     77  CD         8.3650  -20.2110   22.8320 C.2   146  GLU146      0.3649
     78  OE1        7.4940  -19.9190   23.6870 O.co2 146  GLU146     -0.2457
     79  OE2        9.1770  -21.1160   22.9110 O.co2 146  GLU146     -0.2457
     80  N         18.1950  -18.1790   34.5280 N.3   171  ARG171     -0.1231
     81  CA        19.4830  -18.6690   35.0210 C.3   171  ARG171      0.1694
     82  C         20.5720  -17.8340   34.3550 C.2   171  ARG171      0.2591
     83  O         21.7640  -18.0240   34.5860 O.2   171  ARG171     -0.2718
     84  CB        19.7230  -20.1710   34.7220 C.3   171  ARG171      0.0321
     85  CG        20.5750  -20.8450   35.8330 C.3   171  ARG171      0.0489
     86  CD        21.2000  -22.1940   35.4380 C.3   171  ARG171      0.2205
     87  NE        20.1950  -23.1810   35.0500 N.pl3 171  ARG171     -0.0865
     88  CZ        20.4500  -24.4320   34.6500 C.cat 171  ARG171      0.5346
     89  NH1       21.7040  -24.9070   34.5860 N.pl3 171  ARG171      0.1354
     90  NH2       19.4900  -25.2890   34.2770 N.pl3 171  ARG171      0.1354
     91  N         20.1350  -16.8910   33.5290 N.am  172  ILE172     -0.1980
     92  CA        21.0730  -16.0190   32.8040 C.3   172  ILE172      0.1595
     93  C         21.4940  -14.8610   33.7170 C.2   172  ILE172      0.2287
     94  O         20.7270  -14.3940   34.5680 O.2   172  ILE172     -0.2864
     95  CB        20.4180  -15.5710   31.4840 C.3   172  ILE172      0.0276
     96  CG1       20.5920  -16.7030   30.4420 C.3   172  ILE172      0.0022
     97  CG2       21.0300  -14.2810   30.9100 C.3   172  ILE172      0.0022
     98  CD1       19.9730  -16.4400   29.0750 C.3   172  ILE172      0.0001
     99  N          3.8850   -9.8130   25.3460 N.3   192  ASP192     -0.1225
    100  CA         5.3530   -9.7880   25.3630 C.3   192  ASP192      0.1805
    101  C          5.8120   -9.7100   23.9100 C.2   192  ASP192      0.2598
    102  O          4.9730   -9.8210   22.9940 O.2   192  ASP192     -0.2718
    103  CB         5.8360  -11.0620   26.0780 C.3   192  ASP192      0.1424
    104  CG         7.3280  -11.1350   26.4100 C.2   192  ASP192      0.3668
    105  OD1        8.0090  -10.0720   26.6090 O.co2 192  ASP192     -0.2456
    106  OD2        7.8930  -12.2870   26.4980 O.co2 192  ASP192     -0.2456
    107  N          7.0070   -9.1970   23.7030 N.am  193  ALA193     -0.1966
    108  CA         7.6080   -9.0470   22.3790 C.3   193  ALA193      0.1728
    109  C          7.9310  -10.4950   21.9920 C.2   193  ALA193      0.2616
    110  O          7.5970  -11.3880   22.8030 O.2   193  ALA193     -0.2715
    111  CB         8.8240   -8.1570   22.4140 C.3   193  ALA193      0.0334
    112  N          8.5410  -10.6940   20.8670 N.am  194  CYS194     -0.1954
    113  CA         8.8790  -12.0620   20.4030 C.3   194  CYS194      0.1843
    114  C          9.8940  -11.8630   19.2820 C.2   194  CYS194      0.2625
    115  O         10.2660  -10.6880   19.0400 O.2   194  CYS194     -0.2714
    116  CB         7.6230  -12.7950   19.9630 C.3   194  CYS194      0.0997
    117  SG         7.8320  -14.5800   19.6370 S.3   194  CYS194     -0.0797
    118  N         10.2860  -12.9530   18.6710 N.am  195  GLU195     -0.1977
    119  CA        11.2330  -12.8500   17.5280 C.3   195  GLU195      0.1602
    120  C         10.6680  -11.8490   16.5120 C.2   195  GLU195      0.2287
    121  O          9.4590  -11.9460   16.2390 O.2   195  GLU195     -0.2864
    122  CB        11.2890  -14.1820   16.7740 C.3   195  GLU195      0.0415
    123  CG        12.5480  -14.5420   15.9800 C.3   195  GLU195      0.1163
    124  CD        12.9680  -15.9860   16.2130 C.2   195  GLU195      0.3649
    125  OE1       11.9770  -16.7270   16.4820 O.co2 195  GLU195     -0.2457
    126  OE2       14.1480  -16.3280   16.2190 O.co2 195  GLU195     -0.2457
    127  N         12.9090   -7.5030   18.3720 N.3   198  SER198     -0.1217
    128  CA        14.2150   -7.0230   18.8320 C.3   198  SER198      0.1889
    129  C         14.5900   -5.7590   18.0750 C.2   198  SER198      0.2288
    130  O         14.0980   -5.6170   16.9530 O.2   198  SER198     -0.2866
    131  CB        15.3280   -8.0450   18.6730 C.3   198  SER198      0.2089
    132  OG        15.1210   -8.9790   17.6530 O.3   198  SER198     -0.2183
    133  N         13.9270   -3.6900   23.0140 N.3   218  VAL218     -0.1231
    134  CA        13.6440   -5.1350   23.0910 C.3   218  VAL218      0.1692
    135  C         14.9600   -5.8830   22.8840 C.2   218  VAL218      0.2593
    136  O         15.6660   -5.6890   21.8830 O.2   218  VAL218     -0.2718
    137  CB        12.5900   -5.4820   22.0440 C.3   218  VAL218      0.0266
    138  CG1       11.9620   -6.8670   22.2650 C.3   218  VAL218      0.0020
    139  CG2       11.4400   -4.4620   22.0380 C.3   218  VAL218      0.0020
    140  N         15.2780   -6.7460   23.8330 N.am  219  SER219     -0.1938
    141  CA        16.5750   -7.4280   23.7930 C.3   219  SER219      0.2055
    142  C         16.4890   -8.9470   23.5740 C.2   219  SER219      0.2643
    143  O         16.9510   -9.4450   22.5390 O.2   219  SER219     -0.2714
    144  CB        17.3360   -7.1500   25.1020 C.3   219  SER219      0.2130
    145  OG        18.7400   -7.3720   24.9330 O.3   219  SER219     -0.2179
    146  N         15.9380   -9.6320   24.5580 N.am  220  TRP220     -0.1959
    147  CA        15.7960  -11.1080   24.5670 C.3   220  TRP220      0.1771
    148  C         14.7560  -11.4970   25.6620 C.2   220  TRP220      0.2620
    149  O         14.2910  -10.6610   26.4270 O.2   220  TRP220     -0.2715
    150  CB        17.1700  -11.7650   24.8550 C.3   220  TRP220      0.0590
    151  CG        17.8210  -11.3570   26.1910 C.ar  220  TRP220      0.0006
    152  CD1       18.7340  -10.3900   26.3810 C.ar  220  TRP220      0.0946
    153  CD2       17.5620  -11.9590   27.4570 C.ar  220  TRP220      0.0152
    154  NE1       19.0810  -10.3860   27.7650 N.ar  220  TRP220     -0.2442
    155  CE2       18.3850  -11.3210   28.3830 C.ar  220  TRP220      0.0810
    156  CE3       16.7070  -12.9840   27.8880 C.ar  220  TRP220      0.0012
    157  CZ2       18.4070  -11.6670   29.7420 C.ar  220  TRP220      0.0191
    158  CZ3       16.7270  -13.3120   29.2550 C.ar  220  TRP220      0.0001
    159  CH2       17.5350  -12.6780   30.1410 C.ar  220  TRP220      0.0015
    160  N         14.4100  -12.7630   25.7070 N.am  221  GLY221     -0.1940
    161  CA        13.4370  -13.3970   26.6430 C.3   221  GLY221      0.2014
    162  C         13.5350  -14.8770   26.2990 C.2   221  GLY221      0.2639
    163  O         13.9190  -15.2530   25.1940 O.2   221  GLY221     -0.2714
    164  N         13.2730  -15.7350   27.1950 N.am  222  GLU222     -0.1963
    165  CA        13.3380  -17.1690   26.8920 C.3   222  GLU222      0.1733
    166  C         11.9260  -17.5210   26.4390 C.2   222  GLU222      0.2617
    167  O         11.0140  -17.7820   27.2400 O.2   222  GLU222     -0.2715
    168  CB        13.8310  -17.9100   28.1360 C.3   222  GLU222      0.0429
    169  CG        14.9190  -17.1230   28.8870 C.3   222  GLU222      0.1163
    170  CD        15.3780  -17.7920   30.1710 C.2   222  GLU222      0.3649
    171  OE1       14.5230  -18.0060   31.1000 O.co2 222  GLU222     -0.2457
    172  OE2       16.6110  -18.1300   30.3040 O.co2 222  GLU222     -0.2457
    173  N         11.7720  -17.4610   25.1410 N.am  223  GLY223     -0.1940
    174  CA        10.4850  -17.6830   24.5010 C.3   223  GLY223      0.2014
    175  C          9.8090  -16.3220   24.3000 C.2   223  GLY223      0.2639
    176  O         10.4840  -15.2810   24.2480 O.2   223  GLY223     -0.2714
    177  N          8.5110  -16.4010   24.1860 N.am  224  CYS224     -0.1967
    178  CA         7.6280  -15.2570   23.9870 C.3   224  CYS224      0.1712
    179  C          6.3550  -15.4960   24.7660 C.2   224  CYS224      0.2296
    180  O          5.6360  -16.4650   24.4750 O.2   224  CYS224     -0.2864
    181  CB         7.2640  -15.1210   22.5110 C.3   224  CYS224      0.0983
    182  SG         8.7150  -15.2500   21.3780 S.3   224  CYS224     -0.0798
    183  N          5.7030  -16.7120   27.8880 N.3   226  ARG226     -0.1245
    184  CA         5.6430  -17.9220   28.7390 C.3   226  ARG226      0.1563
    185  C          5.4000  -17.4550   30.1820 C.2   226  ARG226      0.2260
    186  O          5.7970  -16.3220   30.5510 O.2   226  ARG226     -0.2867
    187  CB         6.8950  -18.7610   28.6370 C.3   226  ARG226      0.0307
    188  CG         7.4540  -18.9890   27.2460 C.3   226  ARG226      0.0489
    189  CD         8.7800  -19.7080   27.3020 C.3   226  ARG226      0.2205
    190  NE         8.6930  -20.9580   26.5710 N.pl3 226  ARG226     -0.0865
    191  CZ         9.5730  -21.8960   26.2910 C.cat 226  ARG226      0.5346
    192  NH1       10.7920  -22.0530   26.8120 N.pl3 226  ARG226      0.1354
    193  NH2        9.2510  -22.8040   25.3530 N.pl3 226  ARG226      0.1354
    194  N          7.9910  -15.9100   33.0260 N.3   229  LYS229     -0.1245
    195  CA         9.0750  -15.4610   32.1300 C.3   229  LYS229      0.1561
    196  C          8.6950  -14.0800   31.5660 C.2   229  LYS229      0.2260
    197  O          7.5050  -13.7460   31.3300 O.2   229  LYS229     -0.2867
    198  CB         9.4570  -16.4790   31.0970 C.3   229  LYS229      0.0271
    199  CG         9.9720  -17.8080   31.7400 C.3   229  LYS229      0.0035
    200  CD        11.3170  -18.1430   31.1100 C.3   229  LYS229      0.0206
    201  CE        11.7030  -19.5990   31.1720 C.3   229  LYS229      0.1093
    202  NZ        12.9090  -19.7910   32.0250 N.3   229  LYS229     -0.1314
    203  N         10.2430  -10.3060   29.4260 N.3   231  GLY231     -0.1225
    204  CA        11.1650   -9.8460   28.3800 C.3   231  GLY231      0.1811
    205  C         12.2240   -8.9010   28.9680 C.2   231  GLY231      0.2280
    206  O         11.9620   -8.1470   29.9160 O.2   231  GLY231     -0.2866
    207  N         15.0610   -5.9540   28.1490 N.3   233  TYR233     -0.1241
    208  CA        15.3040   -4.7780   27.3180 C.3   233  TYR233      0.1605
    209  C         16.5840   -4.0430   27.6910 C.2   233  TYR233      0.2264
    210  O         16.9180   -3.9190   28.8690 O.2   233  TYR233     -0.2867
    211  CB        14.1720   -3.7780   27.5800 C.3   233  TYR233      0.0534
    212  CG        12.7860   -4.3620   27.3450 C.ar  233  TYR233     -0.0201
    213  CD1       12.1000   -5.0240   28.3730 C.ar  233  TYR233     -0.0009
    214  CD2       12.1930   -4.2210   26.0940 C.ar  233  TYR233     -0.0009
    215  CE1       10.8340   -5.5630   28.1290 C.ar  233  TYR233      0.0417
    216  CE2       10.9300   -4.7580   25.8560 C.ar  233  TYR233      0.0417
    217  CZ        10.2560   -5.4340   26.8660 C.ar  233  TYR233      0.1957
    218  OH         9.0470   -5.9960   26.6070 O.3   233  TYR233     -0.2866
@<TRIPOS>BOND
     1    38    39    1
     2    38    37    1
     3    38    41    1
     4    42    43    1
     5    42    41    1
     6    39    40    2
     7    26    25    2
     8    43    44    1
     9    25    24    1
    10    44    45    1
    11    24    27    1
    12    24    23    1
    13    27    28    1
    14    14    13    2
    15    33    30   ar
    16    33    35   ar
    17    28    30   ar
    18    28    29   ar
    19    11    12    1
    20    13    12    1
    21    30    32   ar
    22   123   124    1
    23   123   122    1
    24    35    36   ar
    25   124   126   ar
    26   124   125   ar
    27   121   120    2
    28    29    31   ar
    29    12    15    1
    30   120   119    1
    31    15    16    1
    32     4     3    2
    33   122   119    1
    34     3     2    1
    35    32    31   ar
    36    32    34   ar
    37   130   129    2
    38    36    34   ar
    39    18    16   ar
    40    18    20   ar
    41   119   118    1
    42   132   131    1
    43    16    17   ar
    44   129   128    1
    45     2     1    1
    46     2     5    1
    47    74    73    2
    48   127   128    1
    49     8    10   ar
    50     8     6   ar
    51    20    21   ar
    52   118   114   am
    53   131   128    1
    54    10     9   ar
    55    73    72    1
    56    17    19   ar
    57   115   114    2
    58   114   113    1
    59     5     6    1
    60     6     7   ar
    61   117   116    1
    62   117   182    1
    63    21    19   ar
    64    21    22    1
    65     9     7   ar
    66   116   113    1
    67    71    72    1
    68    72    75    1
    69   113   112    1
    70   112   109   am
    71   182   181    1
    72    75    76    1
    73    76    77    1
    74   136   135    2
    75   109   108    1
    76   109   110    2
    77   139   137    1
    78   137   138    1
    79   137   134    1
    80   108   111    1
    81   108   107    1
    82   181   178    1
    83   143   142    2
    84    70    68    1
    85    77    79   ar
    86    77    78   ar
    87   135   134    1
    88   135   140   am
    89    69    68    1
    90   102   101    2
    91   133   134    1
    92    68    67    1
    93   142   141    1
    94   142   146   am
    95   107   101   am
    96   141   140    1
    97   141   144    1
    98   101   100    1
    99   178   177    1
   100   178   179    1
   101   177   175   am
   102   176   175    2
   103   175   174    1
   104   180   179    2
   105   174   173    1
   106   146   147    1
   107   147   150    1
   108   147   148    1
   109   150   151    1
   110    67    64    1
   111   145   144    1
   112   173   166   am
   113   163   162    2
   114    99   100    1
   115   193   191    1
   116   100   103    1
   117    64    65    1
   118    64    63    1
   119   148   160   am
   120   148   149    2
   121   160   161    1
   122   216   214   ar
   123   216   217   ar
   124   103   104    1
   125   214   212   ar
   126    66    65    2
   127   151   152   ar
   128   151   153   ar
   129    46    47    1
   130   191   190    2
   131   191   192    1
   132   162   161    1
   133   162   164   am
   134    63    57   am
   135   152   154   ar
   136   104   106   ar
   137   104   105   ar
   138   166   165    1
   139   166   167    2
   140   190   189    1
   141   218   217    1
   142   217   215   ar
   143   165   164    1
   144   165   168    1
   145   188   189    1
   146   188   187    1
   147    57    58    2
   148    57    56    1
   149   208   211    1
   150   208   209    1
   151   208   207    1
   152   212   211    1
   153   212   213   ar
   154    49    48    2
   155    47    48    1
   156    47    50    1
   157   153   156   ar
   158   153   155   ar
   159    48    55   am
   160   209   210    2
   161   154   155   ar
   162   183   184    1
   163   156   158   ar
   164    55    56    1
   165    56    59    1
   166   215   213   ar
   167   168   169    1
   168   204   205    1
   169   204   203    1
   170   155   157   ar
   171   187   184    1
   172    50    51    1
   173   184   185    1
   174   169   170    1
   175   205   206    2
   176    98    96    1
   177   158   159   ar
   178    59    60    1
   179   157   159   ar
   180    51    52    1
   181   170   172   ar
   182   170   171   ar
   183   185   186    2
   184    60    61    2
   185    60    62   am
   186    96    95    1
   187    97    95    1
   188    53    52   ar
   189   198   199    1
   190   198   195    1
   191   200   201    1
   192   200   199    1
   193    52    54   ar
   194   201   202    1
   195   197   196    2
   196    95    92    1
   197   196   195    1
   198   195   194    1
   199    92    91    1
   200    92    93    1
   201    91    82   am
   202    93    94    2
   203    90    88    1
   204    82    83    2
   205    82    81    1
   206    80    81    1
   207    89    88    1
   208    88    87    2
   209    84    81    1
   210    84    85    1
   211    87    86    1
   212    86    85    1
