@<TRIPOS>MOLECULE
tmp/8ldhA00.pdb
 139 131 0 0 0
SMALL
GASTEIGER

@<TRIPOS>ATOM
      1  N          5.1930   24.8540    5.6590 N.3    31  VAL31      -0.1245
      2  CA         5.9470   23.6480    6.0710 C.3    31  VAL31       0.1561
      3  C          5.0790   22.7000    6.8750 C.2    31  VAL31       0.2260
      4  O          5.0890   21.4990    6.7470 O.2    31  VAL31      -0.2867
      5  CB         7.1760   24.1360    6.8620 C.3    31  VAL31       0.0252
      6  CG1        8.1080   23.0080    7.3110 C.3    31  VAL31       0.0019
      7  CG2        7.9090   25.2280    6.0890 C.3    31  VAL31       0.0019
      8  N         11.3880   34.4540   10.8780 N.3    99  ARG99      -0.1301
      9  CA        12.1560   34.1810    9.6400 C.3    99  ARG99       0.1248
     10  C         13.3940   34.9860    9.4230 C.3    99  ARG99       0.2009
     11  O         13.9990   34.7470    8.3100 O.3    99  ARG99      -0.2188
     12  CB        11.2030   34.1200    8.4150 C.3    99  ARG99       0.0254
     13  CG        11.5360   32.9410    7.4960 C.3    99  ARG99       0.0485
     14  CD        10.4620   32.5950    6.5310 C.3    99  ARG99       0.2205
     15  NE         9.1440   32.4970    7.1200 N.pl3  99  ARG99      -0.0865
     16  CZ         7.9660   32.3750    6.4840 C.cat  99  ARG99       0.5346
     17  NH1        7.8540   32.3090    5.1590 N.pl3  99  ARG99       0.1354
     18  NH2        6.8300   32.3350    7.2240 N.pl3  99  ARG99       0.1354
     19  N         11.7370   20.9530   12.9270 N.3   136  VAL136     -0.1231
     20  CA        11.9100   21.4030   11.5360 C.3   136  VAL136      0.1692
     21  C         12.4490   22.8260   11.4190 C.2   136  VAL136      0.2593
     22  O         13.2720   23.1560   10.5490 O.2   136  VAL136     -0.2718
     23  CB        10.6000   21.1790   10.7790 C.3   136  VAL136      0.0266
     24  CG1       10.4830   21.9830    9.4910 C.3   136  VAL136      0.0020
     25  CG2       10.4750   19.6540   10.5280 C.3   136  VAL136      0.0020
     26  N         11.9650   23.6800   12.2940 N.am  137  SER137     -0.1938
     27  CA        12.2920   25.1010   12.3600 C.3   137  SER137      0.2055
     28  C         13.7790   25.3810   12.1510 C.2   137  SER137      0.2643
     29  O         14.7310   24.7010   12.6400 O.2   137  SER137     -0.2714
     30  CB        11.7870   25.6950   13.6660 C.3   137  SER137      0.2130
     31  OG        10.3550   25.5390   13.7350 O.3   137  SER137     -0.2179
     32  N         14.0050   26.4550   11.4130 N.am  138  ASN138     -0.1971
     33  CA        15.4000   26.8670   11.1050 C.3   138  ASN138      0.1688
     34  C         15.7140   28.0730   11.9770 C.2   138  ASN138      0.2292
     35  O         14.7710   28.7850   12.3610 O.2   138  ASN138     -0.2864
     36  CB        15.4830   26.9690    9.6220 C.3   138  ASN138      0.1181
     37  CG        15.7760   25.6880    8.8820 C.2   138  ASN138      0.2629
     38  OD1       16.7340   24.9750    9.2920 O.2   138  ASN138     -0.2716
     39  ND2       15.0440   25.2820    7.8770 N.am  138  ASN138     -0.0877
     40  N         16.8530   16.4290    4.4010 N.3   165  LEU165     -0.1231
     41  CA        16.3170   16.8970    3.1010 C.3   165  LEU165      0.1693
     42  C         17.4750   17.2030    2.1660 C.2   165  LEU165      0.2592
     43  O         17.3720   16.8770    0.9860 O.2   165  LEU165     -0.2718
     44  CB        15.3370   18.0410    3.2810 C.3   165  LEU165      0.0284
     45  CG        14.8600   18.7320    2.0020 C.3   165  LEU165      0.0019
     46  CD1       14.3170   17.6390    1.0300 C.3   165  LEU165      0.0001
     47  CD2       13.7700   19.7280    2.3420 C.3   165  LEU165      0.0001
     48  N         18.4950   17.8240    2.6540 N.am  166  ASP166     -0.1974
     49  CA        19.7260   18.1300    1.9330 C.3   166  ASP166      0.1709
     50  C         20.3530   16.8870    1.2590 C.2   166  ASP166      0.2293
     51  O         20.8890   16.9610    0.1600 O.2   166  ASP166     -0.2864
     52  CB        20.7530   18.6810    2.9390 C.3   166  ASP166      0.1436
     53  CG        20.4450   20.0690    3.4020 C.2   166  ASP166      0.3671
     54  OD1       19.8950   20.8870    2.6270 O.co2 166  ASP166     -0.2456
     55  OD2       20.8390   20.2130    4.5420 O.co2 166  ASP166     -0.2456
     56  N         18.3340   15.7980   -1.4350 N.3   169  ARG169     -0.1245
     57  CA        18.5320   16.6590   -2.5850 C.3   169  ARG169      0.1563
     58  C         19.8030   16.2320   -3.3280 C.2   169  ARG169      0.2260
     59  O         19.9030   16.2180   -4.5550 O.2   169  ARG169     -0.2867
     60  CB        18.5850   18.1700   -2.2800 C.3   169  ARG169      0.0307
     61  CG        17.6020   18.7580   -1.2930 C.3   169  ARG169      0.0489
     62  CD        16.9330   20.0010   -1.6640 C.3   169  ARG169      0.2205
     63  NE        16.9600   21.0670   -0.6340 N.pl3 169  ARG169     -0.0865
     64  CZ        15.9250   21.8190   -0.3000 C.cat 169  ARG169      0.5346
     65  NH1       14.7190   21.7540   -0.8920 N.pl3 169  ARG169      0.1354
     66  NH2       16.0010   22.6830    0.6620 N.pl3 169  ARG169      0.1354
     67  N         23.4860   21.9910    9.3050 N.3   193  HIS193     -0.1226
     68  CA        22.5050   22.2180    8.2620 C.3   193  HIS193      0.1752
     69  C         22.7010   23.5350    7.5840 C.2   193  HIS193      0.2596
     70  O         22.5570   24.5580    8.3400 O.2   193  HIS193     -0.2718
     71  CB        21.0500   22.2320    8.8730 C.3   193  HIS193      0.0759
     72  CG        20.0290   22.6380    7.8640 C.ar  193  HIS193      0.0818
     73  ND1       18.8850   23.3160    8.1180 N.ar  193  HIS193     -0.2268
     74  CD2       20.0250   22.4080    6.5240 C.ar  193  HIS193      0.1154
     75  CE1       18.1900   23.5140    7.0200 C.ar  193  HIS193      0.1986
     76  NE2       18.8710   22.9700    6.0260 N.ar  193  HIS193     -0.2212
     77  N         22.9820   23.5590    6.2960 N.am  194  GLY194     -0.1957
     78  CA        23.0600   24.9410    5.6730 C.3   194  GLY194      0.1869
     79  C         24.2210   25.0780    4.7130 C.2   194  GLY194      0.2309
     80  O         24.4370   24.2140    3.8380 O.2   194  GLY194     -0.2863
     81  N         22.6150   23.3310   -1.5360 N.3   232  VAL232     -0.1245
     82  CA        22.3430   24.4690   -0.6580 C.3   232  VAL232      0.1561
     83  C         21.8590   25.7280   -1.3940 C.2   232  VAL232      0.2260
     84  O         21.1670   26.5750   -0.7600 O.2   232  VAL232     -0.2867
     85  CB        23.4940   24.8330    0.2890 C.3   232  VAL232      0.0252
     86  CG1       24.8250   25.2240   -0.3240 C.3   232  VAL232      0.0019
     87  CG2       22.9540   25.9720    1.1900 C.3   232  VAL232      0.0019
     88  N         18.1680   25.5820   -3.1960 N.3   235  ALA235     -0.1231
     89  CA        17.2100   25.7550   -2.1080 C.3   235  ALA235      0.1694
     90  C         16.7790   27.2080   -1.9390 C.2   235  ALA235      0.2592
     91  O         15.7300   27.4790   -1.3580 O.2   235  ALA235     -0.2718
     92  CB        17.8330   25.3470   -0.7640 C.3   235  ALA235      0.0304
     93  N         17.6320   28.1030   -2.3860 N.am  236  TYR236     -0.1976
     94  CA        17.4090   29.5550   -2.3400 C.3   236  TYR236      0.1639
     95  C         16.7470   29.8910   -3.6930 C.2   236  TYR236      0.2290
     96  O         15.9520   30.8370   -3.7600 O.2   236  TYR236     -0.2864
     97  CB        18.6440   30.4060   -2.0550 C.3   236  TYR236      0.0560
     98  CG        19.3680   30.0150   -0.7770 C.ar  236  TYR236     -0.0198
     99  CD1       18.6500   29.4230    0.2790 C.ar  236  TYR236     -0.0009
    100  CD2       20.7360   30.2550   -0.6100 C.ar  236  TYR236     -0.0009
    101  CE1       19.2950   29.0580    1.4590 C.ar  236  TYR236      0.0417
    102  CE2       21.3830   29.9060    0.5750 C.ar  236  TYR236      0.0417
    103  CZ        20.6610   29.3020    1.6010 C.ar  236  TYR236      0.1957
    104  OH        21.3140   28.9680    2.7540 O.3   236  TYR236     -0.2866
    105  N         12.8480   29.3230   -3.2350 N.3   239  ILE239     -0.1245
    106  CA        12.3740   30.5720   -2.6150 C.3   239  ILE239      0.1561
    107  C         12.2630   31.7480   -3.5780 C.2   239  ILE239      0.2260
    108  O         11.1780   32.3330   -3.6990 O.2   239  ILE239     -0.2867
    109  CB        13.3190   30.9370   -1.4010 C.3   239  ILE239      0.0252
    110  CG1       13.1460   29.8850   -0.2900 C.3   239  ILE239      0.0019
    111  CG2       13.0590   32.3800   -0.8900 C.3   239  ILE239      0.0019
    112  CD1       14.2990   29.5990    0.6470 C.3   239  ILE239      0.0001
    113  N          8.8100   30.3750   -1.1650 N.3   244  TYR244     -0.1227
    114  CA         8.8650   29.4790    0.0220 C.3   244  TYR244      0.1736
    115  C          9.0870   27.9920   -0.3710 C.2   244  TYR244      0.2596
    116  O          9.1350   27.6480   -1.5620 O.2   244  TYR244     -0.2718
    117  CB         7.5450   29.5860    0.8370 C.3   244  TYR244      0.0548
    118  CG         6.3120   29.0820    0.0830 C.ar  244  TYR244     -0.0200
    119  CD1        5.8090   27.8010    0.3410 C.ar  244  TYR244     -0.0009
    120  CD2        5.6820   29.9030   -0.8600 C.ar  244  TYR244     -0.0009
    121  CE1        4.6770   27.3420   -0.3430 C.ar  244  TYR244      0.0417
    122  CE2        4.5500   29.4440   -1.5440 C.ar  244  TYR244      0.0417
    123  CZ         4.0470   28.1630   -1.2850 C.ar  244  TYR244      0.1957
    124  OH         2.9480   27.7170   -1.9490 O.3   244  TYR244     -0.2866
    125  N          9.2100   27.1670    0.6820 N.am  245  THR245     -0.1953
    126  CA         9.4840   25.6980    0.5940 C.3   245  THR245      0.1897
    127  C          8.4360   24.8810    1.3460 C.2   245  THR245      0.2313
    128  O          7.9870   25.2260    2.4340 O.2   245  THR245     -0.2863
    129  CB        10.7980   25.3670    1.3130 C.3   245  THR245      0.1794
    130  OG1       11.0540   26.3370    2.3310 O.3   245  THR245     -0.2208
    131  CG2       12.0030   25.3450    0.3810 C.3   245  THR245      0.0378
    132  N         10.1540   19.3040    1.9880 N.3   249  ILE249     -0.1245
    133  CA        10.3530   19.2110    3.4250 C.3   249  ILE249      0.1561
    134  C          9.2730   18.2960    4.0610 C.2   249  ILE249      0.2260
    135  O          9.6170   17.3390    4.7990 O.2   249  ILE249     -0.2867
    136  CB        10.3370   20.5370    4.2110 C.3   249  ILE249      0.0252
    137  CG1       11.2580   21.6460    3.6650 C.3   249  ILE249      0.0019
    138  CG2       10.6900   20.2490    5.7350 C.3   249  ILE249      0.0019
    139  CD1       11.3540   22.8280    4.7120 C.3   249  ILE249      0.0001
@<TRIPOS>BOND
     1    59    58    2
     2    96    95    2
     3   108   107    2
     4    95    94    1
     5   107   106    1
     6    58    57    1
     7   105   106    1
     8    88    89    1
     9   106   109    1
    10    57    60    1
    11    57    56    1
    12    93    94    1
    13    93    90   am
    14    94    97    1
    15    60    61    1
    16    89    90    1
    17    89    92    1
    18    97    98    1
    19   124   123    1
    20    90    91    2
    21    62    61    1
    22    62    63    1
    23   116   115    2
    24   122   123   ar
    25   122   120   ar
    26    81    82    1
    27   109   111    1
    28   109   110    1
    29    83    84    2
    30    83    82    1
    31   123   121   ar
    32   113   114    1
    33    65    64    1
    34   120   118   ar
    35    98   100   ar
    36    98    99   ar
    37    82    85    1
    38    63    64    2
    39   100   102   ar
    40   115   114    1
    41   115   125   am
    42   121   119   ar
    43    86    85    1
    44    64    66    1
    45   110   112    1
    46   114   117    1
    47   118   119   ar
    48   118   117    1
    49    51    50    2
    50    99   101   ar
    51    85    87    1
    52   131   129    1
    53   102   103   ar
    54   126   125    1
    55   126   129    1
    56   126   127    1
    57    43    42    2
    58    46    45    1
    59    50    49    1
    60   129   130    1
    61   127   128    2
    62   101   103   ar
    63   103   104    1
    64    49    48    1
    65    49    52    1
    66   132   133    1
    67    45    47    1
    68    45    44    1
    69    42    48   am
    70    42    41    1
    71    54    53   ar
    72    52    53    1
    73    41    44    1
    74    41    40    1
    75    53    55   ar
    76   133   134    1
    77   133   136    1
    78   137   136    1
    79   137   139    1
    80    80    79    2
    81   134   135    2
    82   136   138    1
    83    79    78    1
    84    17    16    1
    85     1     2    1
    86    78    77    1
    87    76    74   ar
    88    76    75   ar
    89     2     5    1
    90     2     3    1
    91     7     5    1
    92    77    69   am
    93    16    15    2
    94    16    18    1
    95    74    72   ar
    96    14    15    1
    97    14    13    1
    98     4     3    2
    99     5     6    1
   100    75    73   ar
   101    13    12    1
   102    69    68    1
   103    69    70    2
   104    72    73   ar
   105    72    71    1
   106    39    37   am
   107    68    71    1
   108    68    67    1
   109    11    10    1
   110    12     9    1
   111    37    38    2
   112    37    36    1
   113    10     9    1
   114    24    23    1
   115    36    33    1
   116     9     8    1
   117    25    23    1
   118    22    21    2
   119    23    20    1
   120    33    32    1
   121    33    34    1
   122    32    28   am
   123    21    20    1
   124    21    26   am
   125    20    19    1
   126    34    35    2
   127    28    27    1
   128    28    29    2
   129    26    27    1
   130    27    30    1
   131    30    31    1
