@<TRIPOS>MOLECULE
tmp/8nseA02.pdb
 127 124 0 0 0
SMALL
GASTEIGER

@<TRIPOS>ATOM
      1  N          8.7130    5.2520   36.5390 N.3   120  CYS120     -0.1235
      2  CA         7.6320    5.4870   35.5880 C.3   120  CYS120      0.1677
      3  C          6.3280    4.7660   35.9680 C.2   120  CYS120      0.2270
      4  O          6.2900    3.5420   36.0360 O.2   120  CYS120     -0.2867
      5  CB         8.0780    5.0230   34.2010 C.3   120  CYS120      0.0956
      6  SG         6.7590    5.3640   33.0150 S.3   120  CYS120     -0.0801
      7  N         14.4380   18.5910   28.6190 N.3   183  GLN183     -0.1245
      8  CA        13.3020   18.0600   27.8710 C.3   183  GLN183      0.1566
      9  C         13.3260   18.7210   26.4940 C.2   183  GLN183      0.2260
     10  O         13.9550   19.7740   26.3150 O.2   183  GLN183     -0.2867
     11  CB        11.9720   18.3970   28.5570 C.3   183  GLN183      0.0367
     12  CG        11.6730   17.6040   29.8090 C.3   183  GLN183      0.0905
     13  CD        10.3080   17.9300   30.3990 C.2   183  GLN183      0.2608
     14  OE1        9.3550   18.2200   29.6700 O.2   183  GLN183     -0.2717
     15  NE2       10.2040   17.8610   31.7250 N.am  183  GLN183     -0.0878
     16  N         10.5790   22.9010   26.7860 N.3   186  ARG186     -0.1245
     17  CA        10.7400   23.4870   28.1170 C.3   186  ARG186      0.1563
     18  C         10.4570   24.9900   28.0770 C.2   186  ARG186      0.2260
     19  O         10.7060   25.6440   27.0630 O.2   186  ARG186     -0.2867
     20  CB        12.1820   23.2980   28.6060 C.3   186  ARG186      0.0307
     21  CG        12.6300   21.8730   28.8270 C.3   186  ARG186      0.0489
     22  CD        12.6140   21.5250   30.3000 C.3   186  ARG186      0.2205
     23  NE        11.2690   21.4850   30.8500 N.pl3 186  ARG186     -0.0865
     24  CZ        11.0010   21.3120   32.1390 C.cat 186  ARG186      0.5346
     25  NH1       11.9930   21.1670   33.0110 N.pl3 186  ARG186      0.1354
     26  NH2        9.7410   21.2750   32.5580 N.pl3 186  ARG186      0.1354
     27  N          2.5580   22.8910   27.6870 N.3   267  TYR267     -0.1241
     28  CA         2.7620   22.1610   26.4350 C.3   267  TYR267      0.1605
     29  C          2.3170   20.7110   26.6260 C.2   267  TYR267      0.2264
     30  O          2.4960   20.1340   27.6920 O.2   267  TYR267     -0.2867
     31  CB         4.2350   22.2330   26.0130 C.3   267  TYR267      0.0534
     32  CG         5.2020   21.7670   27.0720 C.ar  267  TYR267     -0.0201
     33  CD1        5.5520   20.4280   27.1800 C.ar  267  TYR267     -0.0009
     34  CD2        5.7380   22.6680   27.9910 C.ar  267  TYR267     -0.0009
     35  CE1        6.4080   19.9820   28.1720 C.ar  267  TYR267      0.0417
     36  CE2        6.5990   22.2460   28.9960 C.ar  267  TYR267      0.0417
     37  CZ         6.9250   20.8980   29.0760 C.ar  267  TYR267      0.1957
     38  OH         7.7630   20.4600   30.0760 O.3   267  TYR267     -0.2866
     39  N          5.5980   15.7690   26.7860 N.3   270  PRO270     -0.2116
     40  CA         6.6650   15.6540   27.7810 C.3   270  PRO270      0.1372
     41  C          7.7720   14.8370   27.1320 C.2   270  PRO270      0.2244
     42  O          7.5040   13.7460   26.6440 O.2   270  PRO270     -0.2868
     43  CB         5.9750   14.9060   28.9160 C.3   270  PRO270      0.0268
     44  CG         5.0630   13.9810   28.1800 C.3   270  PRO270      0.0207
     45  CD         4.4740   14.8760   27.1200 C.3   270  PRO270      0.0892
     46  N         11.7090   13.8440   28.1200 N.3   272  VAL272     -0.1245
     47  CA        13.0170   13.8020   28.7540 C.3   272  VAL272      0.1561
     48  C         14.0230   13.5610   27.6390 C.2   272  VAL272      0.2260
     49  O         13.9320   12.5730   26.9110 O.2   272  VAL272     -0.2867
     50  CB        13.0950   12.6530   29.7850 C.3   272  VAL272      0.0252
     51  CG1       14.5020   12.5600   30.3830 C.3   272  VAL272      0.0019
     52  CG2       12.0690   12.8860   30.8680 C.3   272  VAL272      0.0019
     53  N         12.6930   10.5240   24.7170 N.3   289  PHE289     -0.1227
     54  CA        11.4650    9.7410   24.7230 C.3   289  PHE289      0.1736
     55  C         10.3020   10.6030   25.1850 C.2   289  PHE289      0.2596
     56  O         10.4850   11.5870   25.9110 O.2   289  PHE289     -0.2718
     57  CB        11.6210    8.5290   25.6490 C.3   289  PHE289      0.0547
     58  CG        11.8610    8.8840   27.0940 C.ar  289  PHE289     -0.0202
     59  CD1       10.8080    9.2800   27.9270 C.ar  289  PHE289     -0.0042
     60  CD2       13.1380    8.7780   27.6400 C.ar  289  PHE289     -0.0042
     61  CE1       11.0340    9.5520   29.2910 C.ar  289  PHE289     -0.0003
     62  CE2       13.3690    9.0460   28.9970 C.ar  289  PHE289     -0.0003
     63  CZ        12.3210    9.4310   29.8180 C.ar  289  PHE289     -0.0000
     64  N          9.1060   10.2240   24.7700 N.am  290  SER290     -0.1938
     65  CA         7.8990   10.9400   25.1370 C.3   290  SER290      0.2055
     66  C          6.7270    9.9610   25.1390 C.2   290  SER290      0.2644
     67  O          6.7490    8.9500   24.4340 O.2   290  SER290     -0.2714
     68  CB         7.6190   12.0560   24.1260 C.3   290  SER290      0.2130
     69  OG         7.3450   11.5160   22.8390 O.3   290  SER290     -0.2179
     70  N          5.7170   10.2710   25.9480 N.am  291  GLY291     -0.1939
     71  CA         4.5200    9.4530   26.0200 C.3   291  GLY291      0.2014
     72  C          3.4340   10.4910   26.1610 C.2   291  GLY291      0.2639
     73  O          3.0920   11.1800   25.2060 O.2   291  GLY291     -0.2714
     74  N          2.8940   10.6110   27.3630 N.am  292  TRP292     -0.1959
     75  CA         1.8920   11.6220   27.6220 C.3   292  TRP292      0.1771
     76  C          1.8610   11.8880   29.1150 C.2   292  TRP292      0.2619
     77  O          2.2820   11.0430   29.9130 O.2   292  TRP292     -0.2715
     78  CB         0.5200   11.2040   27.0730 C.3   292  TRP292      0.0590
     79  CG        -0.0350    9.9200   27.5830 C.ar  292  TRP292      0.0006
     80  CD1       -0.5700    9.6810   28.8190 C.ar  292  TRP292      0.0946
     81  CD2       -0.1600    8.6960   26.8480 C.ar  292  TRP292      0.0152
     82  NE1       -1.0270    8.3800   28.8970 N.ar  292  TRP292     -0.2442
     83  CE2       -0.7890    7.7580   27.7020 C.ar  292  TRP292      0.0810
     84  CE3        0.1880    8.3070   25.5490 C.ar  292  TRP292      0.0012
     85  CZ2       -1.0690    6.4430   27.2950 C.ar  292  TRP292      0.0191
     86  CZ3       -0.0910    6.9980   25.1440 C.ar  292  TRP292      0.0001
     87  CH2       -0.7160    6.0850   26.0160 C.ar  292  TRP292      0.0015
     88  N          1.4050   13.0830   29.4780 N.am  293  TYR293     -0.1974
     89  CA         1.3260   13.5170   30.8610 C.3   293  TYR293      0.1639
     90  C          0.2820   12.8510   31.7310 C.2   293  TYR293      0.2290
     91  O         -0.7220   12.3150   31.2540 O.2   293  TYR293     -0.2864
     92  CB         1.0400   15.0200   30.9230 C.3   293  TYR293      0.0560
     93  CG         2.2470   15.9220   30.8610 C.ar  293  TYR293     -0.0198
     94  CD1        3.1770   15.9530   31.8990 C.ar  293  TYR293     -0.0009
     95  CD2        2.4400   16.7710   29.7770 C.ar  293  TYR293     -0.0009
     96  CE1        4.2770   16.8180   31.8590 C.ar  293  TYR293      0.0417
     97  CE2        3.5290   17.6370   29.7150 C.ar  293  TYR293      0.0417
     98  CZ         4.4340   17.6520   30.7580 C.ar  293  TYR293      0.1957
     99  OH         5.5120   18.5070   30.6940 O.3   293  TYR293     -0.2866
    100  N          1.5830   15.8150   37.2530 N.3   297  GLU297     -0.1245
    101  CA         2.8830   16.3450   36.8590 C.3   297  GLU297      0.1567
    102  C          2.8010   17.8570   36.6390 C.2   297  GLU297      0.2260
    103  O          3.6950   18.6090   37.0380 O.2   297  GLU297     -0.2867
    104  CB         3.3750   15.6710   35.5700 C.3   297  GLU297      0.0388
    105  CG         4.0520   14.3300   35.7890 C.3   297  GLU297      0.1160
    106  CD         4.4900   13.6700   34.4950 C.2   297  GLU297      0.3649
    107  OE1        3.6360   13.0570   33.8110 O.co2 297  GLU297     -0.2457
    108  OE2        5.6930   13.7740   34.1720 O.co2 297  GLU297     -0.2457
    109  N          3.1390   19.5430   40.5550 N.3   301  ARG301     -0.1231
    110  CA         4.5660   19.8260   40.6460 C.3   301  ARG301      0.1694
    111  C          4.9680   21.1020   39.9290 C.2   301  ARG301      0.2592
    112  O          5.4120   22.0660   40.5560 O.2   301  ARG301     -0.2718
    113  CB         5.3690   18.6350   40.1120 C.3   301  ARG301      0.0321
    114  CG         5.1360   17.3310   40.8840 C.3   301  ARG301      0.0489
    115  CD         5.3020   17.5030   42.3950 C.3   301  ARG301      0.2205
    116  NE         6.5890   18.1000   42.7300 N.pl3 301  ARG301     -0.0865
    117  CZ         7.7700   17.5100   42.5510 C.cat 301  ARG301      0.5346
    118  NH1        7.8430   16.2860   42.0400 N.pl3 301  ARG301      0.1354
    119  NH2        8.8900   18.1450   42.8730 N.pl3 301  ARG301      0.1354
    120  N          4.8030   21.1120   38.6140 N.am  302  ASN302     -0.1974
    121  CA         5.1490   22.2780   37.8200 C.3   302  ASN302      0.1688
    122  C          4.4840   23.5570   38.3080 C.2   302  ASN302      0.2292
    123  O          5.1630   24.5500   38.5350 O.2   302  ASN302     -0.2864
    124  CB         4.7850   22.0400   36.3620 C.3   302  ASN302      0.1181
    125  CG         5.4200   20.7920   35.8220 C.2   302  ASN302      0.2629
    126  OD1        6.3680   20.2760   36.4090 O.2   302  ASN302     -0.2716
    127  ND2        4.9110   20.2980   34.7020 N.am  302  ASN302     -0.0877
@<TRIPOS>BOND
     1    69    68    1
     2    68    65    1
     3    67    66    2
     4    53    54    1
     5    54    55    1
     6    54    57    1
     7    64    65    1
     8    64    55   am
     9    65    66    1
    10    66    70   am
    11    86    84   ar
    12    86    87   ar
    13    55    56    2
    14    73    72    2
    15    84    81   ar
    16    57    58    1
    17    70    71    1
    18    31    28    1
    19    31    32    1
    20    87    85   ar
    21    71    72    1
    22    72    74   am
    23    10     9    2
    24    28    29    1
    25    28    27    1
    26     9     8    1
    27    29    30    2
    28    42    41    2
    29    16    17    1
    30    39    45    1
    31    39    40    1
    32    81    79   ar
    33    81    83   ar
    34    49    48    2
    35    19    18    2
    36    32    33   ar
    37    32    34   ar
    38    78    79    1
    39    78    75    1
    40    58    60   ar
    41    58    59   ar
    42    45    44    1
    43    41    40    1
    44    33    35   ar
    45    85    83   ar
    46    74    75    1
    47    79    80   ar
    48    75    76    1
    49    48    47    1
    50    60    62   ar
    51    83    82   ar
    52    40    43    1
    53     8    11    1
    54     8     7    1
    55    59    61   ar
    56    34    36   ar
    57    18    17    1
    58    17    20    1
    59    46    47    1
    60    35    37   ar
    61    44    43    1
    62    11    12    1
    63    20    21    1
    64    47    50    1
    65    80    82   ar
    66    21    22    1
    67    36    37   ar
    68    62    63   ar
    69    37    38    1
    70    76    88   am
    71    76    77    2
    72    61    63   ar
    73    88    89    1
    74    14    13    2
    75    97    95   ar
    76    97    98   ar
    77    95    93   ar
    78    50    51    1
    79    50    52    1
    80    12    13    1
    81    22    23    1
    82    13    15   am
    83    99    98    1
    84    98    96   ar
    85    23    24    2
    86    93    92    1
    87    93    94   ar
    88    89    92    1
    89    89    90    1
    90    91    90    2
    91    96    94   ar
    92    24    26    1
    93    24    25    1
    94     6     5    1
    95   107   106   ar
    96   108   106   ar
    97     5     2    1
    98   106   105    1
    99   127   125   am
   100   104   105    1
   101   104   101    1
   102     2     3    1
   103     2     1    1
   104   125   124    1
   105   125   126    2
   106     3     4    2
   107   124   121    1
   108   102   101    1
   109   102   103    2
   110   101   100    1
   111   121   122    1
   112   121   120    1
   113   122   123    2
   114   120   111   am
   115   111   112    2
   116   111   110    1
   117   113   110    1
   118   113   114    1
   119   109   110    1
   120   114   115    1
   121   118   117    1
   122   115   116    1
   123   117   116    2
   124   117   119    1
