@<TRIPOS>MOLECULE
tmp/8rsaB00.pdb
 117 112 0 0 0
SMALL
GASTEIGER

@<TRIPOS>ATOM
      1  N         31.8100   13.5380   54.2400 N.3     7  LYS7       -0.1245
      2  CA        31.8710   14.7220   55.0760 C.3     7  LYS7        0.1561
      3  C         32.0390   15.9800   54.2240 C.2     7  LYS7        0.2260
      4  O         31.3810   17.0060   54.4610 O.2     7  LYS7       -0.2867
      5  CB        32.9440   14.5420   56.1460 C.3     7  LYS7        0.0271
      6  CG        32.8990   15.6560   57.2050 C.3     7  LYS7        0.0035
      7  CD        33.9760   15.3520   58.2830 C.3     7  LYS7        0.0206
      8  CE        34.1420   16.5400   59.1850 C.3     7  LYS7        0.1093
      9  NZ        35.1590   16.2760   60.2580 N.3     7  LYS7       -0.1314
     10  N         29.2170   19.1100   54.0740 N.3    11  GLN11      -0.1231
     11  CA        29.6580   20.4380   54.4420 C.3    11  GLN11       0.1698
     12  C         29.8000   21.4600   53.3500 C.2    11  GLN11       0.2588
     13  O         29.6420   22.6540   53.6140 O.2    11  GLN11      -0.2718
     14  CB        31.0240   20.4030   55.1860 C.3    11  GLN11       0.0381
     15  CG        30.9750   19.6190   56.4670 C.3    11  GLN11       0.0905
     16  CD        32.2350   19.6170   57.2810 C.2    11  GLN11       0.2608
     17  OE1       33.3820   19.6520   56.8910 O.2    11  GLN11      -0.2717
     18  NE2       31.9820   19.5560   58.6040 N.am   11  GLN11      -0.0878
     19  N         30.1640   21.0060   52.1500 N.am   12  HIS12      -0.2029
     20  CA        30.5340   21.9250   51.0790 C.3    12  HIS12       0.1342
     21  C         29.9160   21.7710   49.7350 C.3    12  HIS12       0.2040
     22  O         30.3800   22.5430   48.8730 O.3    12  HIS12      -0.2185
     23  CB        32.1060   21.7540   50.8960 C.3    12  HIS12       0.0718
     24  CG        32.8150   22.1170   52.1440 C.ar   12  HIS12       0.0817
     25  ND1       32.7590   23.3970   52.6400 N.ar   12  HIS12      -0.2268
     26  CD2       33.6110   21.4470   53.0400 C.ar   12  HIS12       0.1154
     27  CE1       33.4570   23.4640   53.7530 C.ar   12  HIS12       0.1986
     28  NE2       33.9880   22.2960   54.0740 N.ar   12  HIS12      -0.2212
     29  N         29.0270   27.2240   63.6420 N.3    41  LYS41      -0.1245
     30  CA        30.3250   27.1220   62.9150 C.3    41  LYS41       0.1561
     31  C         30.5180   28.5210   62.3290 C.2    41  LYS41       0.2260
     32  O         29.5450   29.0900   61.8080 O.2    41  LYS41      -0.2867
     33  CB        30.2290   26.0140   61.8780 C.3    41  LYS41       0.0271
     34  CG        31.5370   25.7840   61.1060 C.3    41  LYS41       0.0035
     35  CD        31.4330   24.5380   60.2400 C.3    41  LYS41       0.0206
     36  CE        32.6550   24.1940   59.4440 C.3    41  LYS41       0.1093
     37  NZ        32.7170   24.7380   58.0570 N.3    41  LYS41      -0.1314
     38  N         31.8430   28.9600   56.3490 N.3    44  ASN44      -0.1240
     39  CA        31.6340   27.7080   55.5410 C.3    44  ASN44       0.1653
     40  C         31.3480   28.1290   54.1200 C.2    44  ASN44       0.2266
     41  O         30.7800   29.2420   53.9620 O.2    44  ASN44      -0.2867
     42  CB        30.4820   26.8860   56.1340 C.3    44  ASN44       0.1155
     43  CG        30.4670   25.5260   55.4780 C.2    44  ASN44       0.2627
     44  OD1       31.5170   24.8920   55.5960 O.2    44  ASN44      -0.2716
     45  ND2       29.3930   25.1680   54.8170 N.am   44  ASN44      -0.0877
     46  N         48.6920   23.6720   49.8050 N.3    65  CYS65      -0.1221
     47  CA        47.5080   23.9180   50.6550 C.3    65  CYS65       0.1808
     48  C         47.9700   24.9680   51.6800 C.2    65  CYS65       0.2601
     49  O         49.1620   25.2470   51.7530 O.2    65  CYS65      -0.2717
     50  CB        47.1760   22.6560   51.4250 C.3    65  CYS65       0.0970
     51  SG        46.6660   21.2270   50.4770 S.3    65  CYS65      -0.0800
     52  N         47.0590   25.3970   52.5210 N.am   66  LYS66      -0.1965
     53  CA        47.4060   26.3690   53.5680 C.3    66  LYS66       0.1728
     54  C         48.4610   25.8340   54.5180 C.2    66  LYS66       0.2616
     55  O         49.3010   26.5840   55.0600 O.2    66  LYS66      -0.2715
     56  CB        46.1540   26.8500   54.3140 C.3    66  LYS66       0.0311
     57  CG        45.3280   27.7740   53.3640 C.3    66  LYS66       0.0038
     58  CD        44.1120   28.3810   54.0440 C.3    66  LYS66       0.0206
     59  CE        43.1680   29.2090   53.2210 C.3    66  LYS66       0.1093
     60  NZ        43.6900   30.4780   52.6610 N.3    66  LYS66      -0.1314
     61  N         48.5170   24.5310   54.7110 N.am   67  ASN67      -0.1972
     62  CA        49.5190   23.9160   55.6040 C.3    67  ASN67       0.1688
     63  C         50.8690   23.6850   54.9370 C.2    67  ASN67       0.2292
     64  O         51.7700   23.1150   55.5950 O.2    67  ASN67      -0.2864
     65  CB        48.9300   22.6510   56.2480 C.3    67  ASN67       0.1181
     66  CG        48.5460   21.5950   55.2240 C.2    67  ASN67       0.2629
     67  OD1       49.2110   21.4570   54.1720 O.2    67  ASN67      -0.2716
     68  ND2       47.4920   20.8340   55.5040 N.am   67  ASN67      -0.0877
     69  N         48.8740   18.5020   48.2550 N.3    71  ASN71      -0.1240
     70  CA        47.7800   17.6520   47.8060 C.3    71  ASN71       0.1653
     71  C         46.6030   18.5800   47.4930 C.2    71  ASN71       0.2266
     72  O         45.4450   18.1520   47.4530 O.2    71  ASN71      -0.2867
     73  CB        47.4390   16.5230   48.7770 C.3    71  ASN71       0.1155
     74  CG        46.9800   17.0590   50.1210 C.2    71  ASN71       0.2627
     75  OD1       47.6150   17.9250   50.7470 O.2    71  ASN71      -0.2716
     76  ND2       45.8030   16.6040   50.5690 N.am   71  ASN71      -0.0877
     77  N         41.6640   20.1670   48.9140 N.3   109  ALA109     -0.1245
     78  CA        42.6140   19.1400   49.3570 C.3   109  ALA109      0.1562
     79  C         41.9770   17.7880   48.9520 C.2   109  ALA109      0.2260
     80  O         40.7760   17.5130   49.1720 O.2   109  ALA109     -0.2867
     81  CB        42.9600   19.2270   50.8060 C.3   109  ALA109      0.0290
     82  N         38.5630   16.2030   49.9060 N.3   118  VAL118     -0.1231
     83  CA        38.2610   15.8970   51.3180 C.3   118  VAL118      0.1692
     84  C         38.2620   17.1830   52.1490 C.2   118  VAL118      0.2592
     85  O         37.6410   17.1350   53.2540 O.2   118  VAL118     -0.2718
     86  CB        39.1170   14.7650   51.9000 C.3   118  VAL118      0.0266
     87  CG1       39.0540   13.4540   51.1290 C.3   118  VAL118      0.0020
     88  CG2       40.5700   15.1640   52.0950 C.3   118  VAL118      0.0020
     89  N         38.8280   18.2880   51.6970 N.am  119  HIS119     -0.1962
     90  CA        38.8070   19.5600   52.4480 C.3   119  HIS119      0.1787
     91  C         38.6430   20.7470   51.5000 C.2   119  HIS119      0.2620
     92  O         39.1880   20.6710   50.3860 O.2   119  HIS119     -0.2715
     93  CB        40.1170   19.9020   53.2390 C.3   119  HIS119      0.0785
     94  CG        40.4350   18.8320   54.2460 C.ar  119  HIS119      0.0821
     95  ND1       41.5700   18.0800   54.2410 N.ar  119  HIS119     -0.2267
     96  CD2       39.6600   18.3720   55.2800 C.ar  119  HIS119      0.1154
     97  CE1       41.5160   17.1850   55.2150 C.ar  119  HIS119      0.1986
     98  NE2       40.3580   17.3430   55.8390 N.ar  119  HIS119     -0.2212
     99  N         37.9910   21.7790   51.9360 N.am  120  PHE120     -0.1960
    100  CA        37.8530   23.0140   51.1330 C.3   120  PHE120      0.1771
    101  C         38.9150   23.9790   51.6900 C.2   120  PHE120      0.2619
    102  O         38.8040   24.4550   52.8390 O.2   120  PHE120     -0.2715
    103  CB        36.4210   23.5350   51.1630 C.3   120  PHE120      0.0574
    104  CG        36.1800   24.6860   50.2330 C.ar  120  PHE120     -0.0200
    105  CD1       36.5010   25.9740   50.6270 C.ar  120  PHE120     -0.0042
    106  CD2       35.6730   24.4400   48.9370 C.ar  120  PHE120     -0.0042
    107  CE1       36.3170   27.0450   49.7570 C.ar  120  PHE120     -0.0003
    108  CE2       35.4450   25.5070   48.0790 C.ar  120  PHE120     -0.0003
    109  CZ        35.7910   26.8020   48.4840 C.ar  120  PHE120     -0.0000
    110  N         39.9250   24.2490   50.8960 N.am  121  ASP121     -0.1971
    111  CA        41.0690   25.0870   51.2400 C.3   121  ASP121      0.1709
    112  C         40.7880   26.5610   51.1070 C.2   121  ASP121      0.2293
    113  O         40.9030   27.2540   52.1630 O.2   121  ASP121     -0.2864
    114  CB        42.3360   24.5910   50.5580 C.3   121  ASP121      0.1436
    115  CG        43.5710   25.2580   51.1230 C.2   121  ASP121      0.3671
    116  OD1       44.2700   24.6760   51.9930 O.co2 121  ASP121     -0.2456
    117  OD2       43.7640   26.4050   50.7380 O.co2 121  ASP121     -0.2456
@<TRIPOS>BOND
     1    72    71    2
     2    71    70    1
     3    70    69    1
     4    70    73    1
     5   108   109   ar
     6   108   106   ar
     7   109   107   ar
     8    73    74    1
     9    22    21    1
    10    77    78    1
    11   106   104   ar
    12    79    80    2
    13    79    78    1
    14    78    81    1
    15    21    20    1
    16   107   105   ar
    17    46    47    1
    18    82    83    1
    19    74    76   am
    20    74    75    2
    21   104   105   ar
    22   104   103    1
    23    92    91    2
    24    51    50    1
    25   114   115    1
    26   114   111    1
    27    47    50    1
    28    47    48    1
    29   117   115   ar
    30    23    20    1
    31    23    24    1
    32   110   111    1
    33   110   101   am
    34    20    19    1
    35   112   111    1
    36   112   113    2
    37   115   116   ar
    38    87    86    1
    39   100   103    1
    40   100   101    1
    41   100    99    1
    42    83    86    1
    43    83    84    1
    44    91    99   am
    45    91    90    1
    46    48    49    2
    47    48    52   am
    48   101   102    2
    49    89    84   am
    50    89    90    1
    51    86    88    1
    52    24    25   ar
    53    24    26   ar
    54    84    85    2
    55    19    12   am
    56    90    93    1
    57    52    53    1
    58    25    27   ar
    59    60    59    1
    60    26    28   ar
    61    59    58    1
    62    93    94    1
    63    12    13    2
    64    12    11    1
    65    57    58    1
    66    57    56    1
    67    53    56    1
    68    53    54    1
    69    27    28   ar
    70    41    40    2
    71    10    11    1
    72    40    39    1
    73    67    66    2
    74     3     4    2
    75     3     2    1
    76     1     2    1
    77    95    94   ar
    78    95    97   ar
    79    94    96   ar
    80    11    14    1
    81    54    61   am
    82    54    55    2
    83    61    62    1
    84    45    43   am
    85    63    64    2
    86    63    62    1
    87     2     5    1
    88    14    15    1
    89    97    98   ar
    90    66    68   am
    91    66    65    1
    92    96    98   ar
    93    43    44    2
    94    43    42    1
    95    39    42    1
    96    39    38    1
    97    62    65    1
    98     5     6    1
    99    15    16    1
   100    17    16    2
   101     6     7    1
   102    16    18   am
   103    37    36    1
   104     7     8    1
   105     8     9    1
   106    36    35    1
   107    35    34    1
   108    34    33    1
   109    32    31    2
   110    33    30    1
   111    31    30    1
   112    30    29    1
