@<TRIPOS>MOLECULE
tmp/966cA00.pdb
 149 149 0 0 0
SMALL
GASTEIGER

@<TRIPOS>ATOM
      1  N          6.1830  -17.4370   31.7240 N.3    72  GLY72      -0.1210
      2  CA         7.6150  -17.3250   31.8970 C.3    72  GLY72       0.1956
      3  C          7.9440  -15.8620   32.0900 C.2    72  GLY72       0.2612
      4  O          7.2220  -15.1120   32.8120 O.2    72  GLY72      -0.2717
      5  N          8.9660  -15.4100   31.3820 N.am   73  ASN73      -0.1960
      6  CA         9.4050  -14.0420   31.4820 C.3    73  ASN73       0.1819
      7  C          8.3950  -13.0030   31.0550 C.2    73  ASN73       0.2621
      8  O          7.8670  -13.0630   29.9320 O.2    73  ASN73      -0.2715
      9  CB        10.7170  -13.8560   30.7400 C.3    73  ASN73       0.1195
     10  CG        11.8540  -13.8630   31.6740 C.2    73  ASN73       0.2630
     11  OD1       12.4120  -14.9210   31.9830 O.2    73  ASN73      -0.2716
     12  ND2       12.0810  -12.7280   32.3040 N.am   73  ASN73      -0.0877
     13  N          8.1340  -12.0610   31.9630 N.am   74  LEU74      -0.1963
     14  CA         7.1560  -10.9810   31.7580 C.3    74  LEU74       0.1728
     15  C          7.7130   -9.6470   31.2810 C.2    74  LEU74       0.2616
     16  O          7.0380   -8.9530   30.5100 O.2    74  LEU74      -0.2715
     17  CB         6.4440  -10.6820   33.0920 C.3    74  LEU74       0.0311
     18  CG         5.9190  -11.8810   33.8630 C.3    74  LEU74       0.0022
     19  CD1        5.4690  -11.4080   35.2380 C.3    74  LEU74       0.0001
     20  CD2        4.7660  -12.5090   33.1010 C.3    74  LEU74       0.0001
     21  N          8.8080   -9.2040   31.9070 N.am   75  ALA75      -0.1963
     22  CA         9.4200   -7.8980   31.5590 C.3    75  ALA75       0.1728
     23  C         10.8370   -7.7620   32.0730 C.2    75  ALA75       0.2616
     24  O         11.2320   -8.4990   32.9200 O.2    75  ALA75      -0.2715
     25  CB         8.5570   -6.7350   32.1280 C.3    75  ALA75       0.0334
     26  N         11.6210   -6.8520   31.4780 N.am   76  HIS76      -0.1973
     27  CA        12.9960   -6.5750   31.9030 C.3    76  HIS76       0.1656
     28  C         13.3380   -5.1330   31.5740 C.2    76  HIS76       0.2291
     29  O         12.9660   -4.5980   30.4950 O.2    76  HIS76      -0.2864
     30  CB        14.0100   -7.5210   31.2130 C.3    76  HIS76       0.0771
     31  CG        13.9930   -7.4580   29.7080 C.ar   76  HIS76       0.0820
     32  ND1       14.0050   -8.5720   28.8890 N.ar   76  HIS76      -0.2267
     33  CD2       13.9370   -6.3940   28.8630 C.ar   76  HIS76       0.1154
     34  CE1       13.9540   -8.1540   27.6040 C.ar   76  HIS76       0.1986
     35  NE2       13.9130   -6.8300   27.5310 N.ar   76  HIS76      -0.2212
     36  N          1.5900   -3.0480   38.3940 N.3   107  ARG107     -0.1231
     37  CA         2.4790   -3.7690   39.2920 C.3   107  ARG107      0.1694
     38  C          3.8530   -4.1150   38.7000 C.2   107  ARG107      0.2591
     39  O          4.8940   -3.6930   39.2380 O.2   107  ARG107     -0.2718
     40  CB         1.7370   -4.9630   39.9150 C.3   107  ARG107      0.0321
     41  CG         0.8740   -4.5130   41.1210 C.3   107  ARG107      0.0489
     42  CD        -0.5210   -5.1600   41.1600 C.3   107  ARG107      0.2205
     43  NE        -1.3540   -4.6140   42.2250 N.pl3 107  ARG107     -0.0865
     44  CZ        -2.2490   -3.6360   42.0660 C.cat 107  ARG107      0.5346
     45  NH1       -2.4670   -3.1180   40.8610 N.pl3 107  ARG107      0.1354
     46  NH2       -2.7460   -3.0030   43.1420 N.pl3 107  ARG107      0.1354
     47  N          3.8470   -4.7760   37.5340 N.am  108  VAL108     -0.1980
     48  CA         5.0770   -5.1440   36.8420 C.3   108  VAL108      0.1595
     49  C          5.8840   -3.8850   36.4570 C.2   108  VAL108      0.2287
     50  O          7.1170   -3.8340   36.6520 O.2   108  VAL108     -0.2864
     51  CB         4.7180   -5.9320   35.5710 C.3   108  VAL108      0.0276
     52  CG1        5.9320   -6.1120   34.6590 C.3   108  VAL108      0.0022
     53  CG2        4.1050   -7.3040   36.0040 C.3   108  VAL108      0.0022
     54  N          7.8340   -2.3560   39.2790 N.3   111  HIS111     -0.1226
     55  CA         9.0310   -3.1640   39.5010 C.3   111  HIS111      0.1752
     56  C         10.1140   -2.7990   38.4740 C.2   111  HIS111      0.2595
     57  O         11.2070   -2.4250   38.8380 O.2   111  HIS111     -0.2718
     58  CB         8.6770   -4.6400   39.4020 C.3   111  HIS111      0.0759
     59  CG         9.8250   -5.5670   39.6700 C.ar  111  HIS111      0.0818
     60  ND1       10.3080   -5.8550   40.9280 N.ar  111  HIS111     -0.2268
     61  CD2       10.5840   -6.3000   38.8110 C.ar  111  HIS111      0.1154
     62  CE1       11.3150   -6.7420   40.8130 C.ar  111  HIS111      0.1986
     63  NE2       11.5320   -7.0530   39.5400 N.ar  111  HIS111     -0.2212
     64  N          9.7470   -2.8430   37.2010 N.am  112  GLU112     -0.1979
     65  CA        10.6500   -2.5240   36.1100 C.3   112  GLU112      0.1602
     66  C         11.2670   -1.1610   36.2350 C.2   112  GLU112      0.2287
     67  O         12.5130   -0.9700   35.9920 O.2   112  GLU112     -0.2864
     68  CB         9.9230   -2.6110   34.7550 C.3   112  GLU112      0.0415
     69  CG         9.5860   -4.0140   34.3060 C.3   112  GLU112      0.1163
     70  CD        10.7470   -4.9750   34.5290 C.2   112  GLU112      0.3649
     71  OE1       11.9150   -4.6240   34.2440 O.co2 112  GLU112     -0.2457
     72  OE2       10.4930   -6.0780   35.0240 O.co2 112  GLU112     -0.2457
     73  N         14.2320   -0.9550   38.4280 N.3   115  HIS115     -0.1241
     74  CA        15.5180   -1.2830   37.7780 C.3   115  HIS115      0.1621
     75  C         15.9870   -0.0720   36.9350 C.2   115  HIS115      0.2264
     76  O         17.2000    0.2420   36.8760 O.2   115  HIS115     -0.2867
     77  CB        15.3930   -2.4950   36.8260 C.3   115  HIS115      0.0745
     78  CG        15.1970   -3.8260   37.4860 C.ar  115  HIS115      0.0817
     79  ND1       16.1520   -4.4840   38.2280 N.ar  115  HIS115     -0.2268
     80  CD2       14.1020   -4.6330   37.5100 C.ar  115  HIS115      0.1154
     81  CE1       15.6440   -5.6440   38.6720 C.ar  115  HIS115      0.1986
     82  NE2       14.3860   -5.7840   38.2580 N.ar  115  HIS115     -0.2212
     83  N         17.1340   -6.5220   42.5730 N.3   121  HIS121     -0.1241
     84  CA        16.0750   -7.3020   43.1910 C.3   121  HIS121      0.1621
     85  C         16.2020   -7.2160   44.7100 C.2   121  HIS121      0.2264
     86  O         17.3070   -6.9760   45.2190 O.2   121  HIS121     -0.2867
     87  CB        16.2030   -8.7610   42.7370 C.3   121  HIS121      0.0745
     88  CG        15.7690   -8.9790   41.3210 C.ar  121  HIS121      0.0817
     89  ND1       16.1930  -10.0170   40.5170 N.ar  121  HIS121     -0.2268
     90  CD2       14.9240   -8.2450   40.5540 C.ar  121  HIS121      0.1154
     91  CE1       15.6160   -9.8840   39.3090 C.ar  121  HIS121      0.1986
     92  NE2       14.8260   -8.8140   39.2810 N.ar  121  HIS121     -0.2212
     93  N          8.7900   -6.6050   49.3510 N.3   127  ALA127     -0.1231
     94  CA         9.2050   -5.4530   48.5460 C.3   127  ALA127      0.1694
     95  C          8.7680   -5.6140   47.1100 C.2   127  ALA127      0.2591
     96  O          8.6950   -6.7090   46.6000 O.2   127  ALA127     -0.2718
     97  CB        10.7300   -5.2570   48.6060 C.3   127  ALA127      0.0304
     98  N          8.4800   -4.4850   46.4680 N.am  128  LEU128     -0.1980
     99  CA         8.0700   -4.4370   45.0610 C.3   128  LEU128      0.1596
    100  C          9.1980   -4.9460   44.2030 C.2   128  LEU128      0.2287
    101  O          8.9640   -5.5410   43.1800 O.2   128  LEU128     -0.2864
    102  CB         7.7640   -3.0080   44.6580 C.3   128  LEU128      0.0297
    103  CG         7.5520   -2.6970   43.1940 C.3   128  LEU128      0.0022
    104  CD1        6.1130   -2.9960   42.8280 C.3   128  LEU128      0.0001
    105  CD2        7.8820   -1.2170   42.9550 C.3   128  LEU128      0.0001
    106  N         11.0120   -7.3450   44.7560 N.3   130  TYR130     -0.1228
    107  CA        11.1480   -8.8060   44.9410 C.3   130  TYR130      0.1721
    108  C         10.8600   -9.4950   43.5940 C.2   130  TYR130      0.2437
    109  O          9.7740   -9.3390   43.0330 O.2   130  TYR130     -0.2733
    110  CB        10.1940   -9.3580   46.0150 C.3   130  TYR130      0.0547
    111  CG        10.4670  -10.7940   46.3190 C.ar  130  TYR130     -0.0200
    112  CD1       11.4990  -11.1570   47.1940 C.ar  130  TYR130     -0.0009
    113  CD2        9.7670  -11.8210   45.6550 C.ar  130  TYR130     -0.0009
    114  CE1       11.8270  -12.4850   47.3990 C.ar  130  TYR130      0.0417
    115  CE2       10.0990  -13.1360   45.8470 C.ar  130  TYR130      0.0417
    116  CZ        11.1190  -13.4670   46.7210 C.ar  130  TYR130      0.1957
    117  OH        11.4060  -14.7900   46.9280 O.3   130  TYR130     -0.2866
    118  N         11.7690  -10.3800   43.1530 N.am  131  PRO131     -0.2718
    119  CA        11.6990  -11.1270   41.8830 C.3   131  PRO131      0.1535
    120  C         10.6840  -12.2700   41.7230 C.2   131  PRO131      0.2599
    121  O         11.0250  -13.3550   41.3280 O.2   131  PRO131     -0.2715
    122  CB        13.1360  -11.6130   41.7040 C.3   131  PRO131      0.0310
    123  CG        13.5080  -12.0210   43.1630 C.3   131  PRO131      0.0237
    124  CD        12.9690  -10.7700   43.9400 C.3   131  PRO131      0.0939
    125  N          9.4210  -11.9890   42.0290 N.am  132  SER132     -0.1936
    126  CA         8.3400  -12.9470   41.8590 C.3   132  SER132      0.2055
    127  C          7.0910  -12.1040   41.7310 C.2   132  SER132      0.2643
    128  O          6.8730  -11.1770   42.5460 O.2   132  SER132     -0.2714
    129  CB         8.2200  -13.8780   43.0810 C.3   132  SER132      0.2130
    130  OG         9.1430  -14.9490   43.0160 O.3   132  SER132     -0.2179
    131  N          6.3220  -12.3420   40.6660 N.am  133  TYR133     -0.1959
    132  CA         5.0880  -11.5980   40.4490 C.3   133  TYR133      0.1771
    133  C          3.9970  -12.0220   41.4340 C.2   133  TYR133      0.2620
    134  O          3.7130  -13.1880   41.5760 O.2   133  TYR133     -0.2715
    135  CB         4.5410  -11.8500   39.0350 C.3   133  TYR133      0.0574
    136  CG         3.1510  -11.2470   38.8200 C.ar  133  TYR133     -0.0198
    137  CD1        2.9800  -10.0450   38.1570 C.ar  133  TYR133     -0.0009
    138  CD2        2.0090  -11.8890   39.3130 C.ar  133  TYR133     -0.0009
    139  CE1        1.7000   -9.4920   37.9910 C.ar  133  TYR133      0.0417
    140  CE2        0.7530  -11.3660   39.1390 C.ar  133  TYR133      0.0417
    141  CZ         0.5840  -10.1660   38.4760 C.ar  133  TYR133      0.1957
    142  OH        -0.7130   -9.7290   38.2450 O.3   133  TYR133     -0.2866
    143  N          3.3620  -11.0450   42.0840 N.am  134  THR134     -0.1951
    144  CA         2.2540  -11.3320   42.9760 C.3   134  THR134      0.1897
    145  C          1.4060  -10.0720   42.8810 C.2   134  THR134      0.2313
    146  O          1.8980   -9.0340   42.5300 O.2   134  THR134     -0.2863
    147  CB         2.6690  -11.6430   44.4590 C.3   134  THR134      0.1794
    148  OG1        3.4810  -10.6050   44.9860 O.3   134  THR134     -0.2208
    149  CG2        3.4580  -12.9150   44.5360 C.3   134  THR134      0.0378
@<TRIPOS>BOND
     1    35    34   ar
     2    35    33   ar
     3    34    32   ar
     4    33    31   ar
     5    32    31   ar
     6    31    30    1
     7     8     7    2
     8    29    28    2
     9    16    15    2
    10     9     6    1
    11     9    10    1
    12     7     6    1
    13     7    13   am
    14    30    27    1
    15    15    14    1
    16    15    21   am
    17     5     6    1
    18     5     3   am
    19    26    27    1
    20    26    23   am
    21    22    21    1
    22    22    23    1
    23    22    25    1
    24    28    27    1
    25    10    11    2
    26    10    12   am
    27     1     2    1
    28    14    13    1
    29    14    17    1
    30     2     3    1
    31    23    24    2
    32     3     4    2
    33    17    18    1
    34    20    18    1
    35    18    19    1
    36    71    70   ar
    37    69    70    1
    38    69    68    1
    39    70    72   ar
    40    52    51    1
    41    68    65    1
    42    51    53    1
    43    51    48    1
    44    67    66    2
    45    65    66    1
    46    65    64    1
    47    49    50    2
    48    49    48    1
    49    77    78    1
    50    77    74    1
    51    48    47    1
    52    76    75    2
    53    75    74    1
    54    64    56   am
    55    78    80   ar
    56    78    79   ar
    57    80    82   ar
    58    47    38   am
    59    74    73    1
    60   139   137   ar
    61   139   141   ar
    62   137   136   ar
    63    79    81   ar
    64   142   141    1
    65    82    81   ar
    66    36    37    1
    67    56    57    2
    68    56    55    1
    69   141   140   ar
    70    38    39    2
    71    38    37    1
    72    61    63   ar
    73    61    59   ar
    74   136   135    1
    75   136   138   ar
    76   135   132    1
    77   140   138   ar
    78    54    55    1
    79    92    91   ar
    80    92    90   ar
    81    37    40    1
    82    91    89   ar
    83    58    55    1
    84    58    59    1
    85    63    62   ar
    86    59    60   ar
    87    40    41    1
    88   132   131    1
    89   132   133    1
    90    89    88   ar
    91    90    88   ar
    92   131   127   am
    93    62    60   ar
    94    45    44    1
    95    41    42    1
    96    42    43    1
    97    88    87    1
    98   121   120    2
    99   133   134    2
   100   133   143   am
   101   122   119    1
   102   122   123    1
   103   120   119    1
   104   120   125   am
   105   127   126    1
   106   127   128    2
   107   126   125    1
   108   126   129    1
   109   119   118    1
   110    44    43    2
   111    44    46    1
   112   143   144    1
   113   146   145    2
   114    83    84    1
   115    87    84    1
   116   104   103    1
   117   145   144    1
   118   105   103    1
   119   144   147    1
   120   130   129    1
   121   109   108    2
   122   118   108   am
   123   118   124    1
   124   123   124    1
   125   101   100    2
   126    84    85    1
   127   103   102    1
   128   108   107    1
   129   100    99    1
   130   147   149    1
   131   147   148    1
   132   102    99    1
   133    85    86    2
   134   106   107    1
   135   107   110    1
   136    99    98    1
   137   113   115   ar
   138   113   111   ar
   139   115   116   ar
   140   110   111    1
   141   111   112   ar
   142    98    95   am
   143    96    95    2
   144   116   117    1
   145   116   114   ar
   146    95    94    1
   147   112   114   ar
   148    94    97    1
   149    94    93    1
