@<TRIPOS>MOLECULE
tmp/9abpA00.pdb
 144 136 0 0 0
SMALL
GASTEIGER

@<TRIPOS>ATOM
      1  N         11.2140   49.1970   58.8160 N.3     9  LYS9       -0.1231
      2  CA        10.4430   50.0300   59.7420 C.3     9  LYS9        0.1693
      3  C          9.0120   50.2240   59.2600 C.2     9  LYS9        0.2591
      4  O          8.0920   50.4180   60.0850 O.2     9  LYS9       -0.2718
      5  CB        11.0980   51.3800   59.9840 C.3     9  LYS9        0.0285
      6  CG        11.5520   52.0980   58.7150 C.3     9  LYS9        0.0035
      7  CD        12.1680   53.4560   59.0260 C.3     9  LYS9        0.0206
      8  CE        12.1460   54.3750   57.8270 C.3     9  LYS9        0.1093
      9  NZ        12.6390   55.7320   58.1930 N.3     9  LYS9       -0.1314
     10  N          8.8680   50.3310   57.9520 N.am   10  GLN10      -0.1979
     11  CA         7.5920   50.7260   57.3210 C.3    10  GLN10       0.1601
     12  C          7.3210   49.8570   56.0990 C.2    10  GLN10       0.2287
     13  O          7.5540   50.2670   54.9550 O.2    10  GLN10      -0.2864
     14  CB         7.5760   52.2130   56.9630 C.3    10  GLN10       0.0394
     15  CG         6.9270   53.0970   58.0060 C.3    10  GLN10       0.0908
     16  CD         7.8250   54.2030   58.5050 C.2    10  GLN10       0.2608
     17  OE1        8.1800   55.1360   57.7810 O.2    10  GLN10      -0.2717
     18  NE2        8.0470   54.2030   59.8200 N.am   10  GLN10      -0.0878
     19  N          4.9860   51.0350   52.9000 N.3    13  GLU13      -0.1196
     20  CA         5.4910   51.9690   51.8730 C.3    13  GLU13       0.1783
     21  C          6.2610   51.2000   50.8060 C.2    13  GLU13       0.2306
     22  O          6.9660   50.2170   51.1100 O.2    13  GLU13      -0.2863
     23  CB         6.3890   53.0320   52.4720 C.2    13  GLU13       0.0071
     24  CG         7.6920   53.4050   51.7870 C.2    13  GLU13       0.0834
     25  CD         8.4910   54.4900   52.4640 C.2    13  GLU13       0.3877
     26  OE1        8.1530   55.0280   53.5070 O.co2  13  GLU13      -0.2406
     27  OE2        9.4890   54.8270   51.8030 O.co2  13  GLU13      -0.2406
     28  N          8.5240   51.6460   48.9150 N.3    15  TRP15      -0.1227
     29  CA         9.9940   51.7030   48.9920 C.3    15  TRP15       0.1737
     30  C         10.5150   50.4250   49.6540 C.2    15  TRP15       0.2595
     31  O         11.4300   49.7640   49.1250 O.2    15  TRP15      -0.2718
     32  CB        10.4650   52.9600   49.7160 C.3    15  TRP15       0.0564
     33  CG        11.9460   53.0460   49.9030 C.ar   15  TRP15       0.0003
     34  CD1       12.6840   52.5150   50.9230 C.ar   15  TRP15       0.0946
     35  CD2       12.8940   53.5630   48.9540 C.ar   15  TRP15       0.0152
     36  NE1       14.0260   52.7160   50.6970 N.ar   15  TRP15      -0.2442
     37  CE2       14.1810   53.3480   49.4980 C.ar   15  TRP15       0.0810
     38  CE3       12.7610   54.2530   47.7550 C.ar   15  TRP15       0.0012
     39  CZ2       15.3350   53.7290   48.8290 C.ar   15  TRP15       0.0191
     40  CZ3       13.9090   54.6120   47.0780 C.ar   15  TRP15       0.0001
     41  CH2       15.1740   54.3820   47.6150 C.ar   15  TRP15       0.0015
     42  N          9.9270   50.1160   50.7980 N.am   16  PHE16      -0.1976
     43  CA        10.3600   49.0170   51.6620 C.3    16  PHE16       0.1639
     44  C          9.9220   47.6740   51.0790 C.2    16  PHE16       0.2290
     45  O         10.6930   46.7050   51.0940 O.2    16  PHE16      -0.2864
     46  CB         9.9550   49.2110   53.1180 C.3    16  PHE16       0.0560
     47  CG        10.8310   50.1660   53.8890 C.ar   16  PHE16      -0.0200
     48  CD1       10.3540   51.4520   54.1770 C.ar   16  PHE16      -0.0042
     49  CD2       12.2070   49.9220   53.9740 C.ar   16  PHE16      -0.0042
     50  CE1       11.1810   52.4140   54.7290 C.ar   16  PHE16      -0.0003
     51  CE2       13.0720   50.8990   54.4960 C.ar   16  PHE16      -0.0003
     52  CZ        12.5450   52.1340   54.8930 C.ar   16  PHE16      -0.0000
     53  N         19.4000   52.2420   54.6130 N.3    88  ASP88      -0.1225
     54  CA        18.6180   53.4770   54.6200 C.3    88  ASP88       0.1805
     55  C         19.0670   54.3890   55.7650 C.2    88  ASP88       0.2597
     56  O         19.5110   55.5310   55.5080 O.2    88  ASP88      -0.2718
     57  CB        17.1210   53.1970   54.5890 C.3    88  ASP88       0.1424
     58  CG        16.6820   52.3930   53.3750 C.2    88  ASP88       0.3668
     59  OD1       16.0720   51.3230   53.5150 O.co2  88  ASP88      -0.2456
     60  OD2       16.9980   52.8600   52.2620 O.co2  88  ASP88      -0.2456
     61  N         18.7120   53.9800   56.9630 N.am   89  ASP89      -0.1974
     62  CA        18.8790   54.7910   58.1850 C.3    89  ASP89       0.1709
     63  C         20.0930   54.2820   58.9720 C.2    89  ASP89       0.2293
     64  O         20.0540   53.1680   59.5240 O.2    89  ASP89      -0.2864
     65  CB        17.5920   54.8060   59.0030 C.3    89  ASP89       0.1436
     66  CG        16.3770   55.2580   58.2240 C.2    89  ASP89       0.3671
     67  OD1       15.2570   55.2940   58.7610 O.co2  89  ASP89      -0.2456
     68  OD2       16.5440   55.4670   57.0020 O.co2  89  ASP89      -0.2456
     69  N         21.0690   56.2140   50.5570 N.3   107  MET107     -0.1245
     70  CA        20.9860   57.1260   49.4050 C.3   107  MET107      0.1570
     71  C         21.8180   58.3750   49.6770 C.2   107  MET107      0.2261
     72  O         22.2670   58.5910   50.8300 O.2   107  MET107     -0.2867
     73  CB        19.5720   57.3990   48.9770 C.3   107  MET107      0.0387
     74  CG        18.7840   58.2030   49.9650 C.3   107  MET107      0.0595
     75  SD        17.4750   59.1010   49.0550 S.3   107  MET107     -0.1393
     76  CE        16.6550   57.7360   48.2300 C.3   107  MET107      0.0692
     77  N         16.4330   62.1890   62.3420 N.3   144  LEU144     -0.1245
     78  CA        16.9150   61.2190   61.3530 C.3   144  LEU144      0.1561
     79  C         17.8640   61.9090   60.3730 C.2   144  LEU144      0.2260
     80  O         17.4260   62.6770   59.5010 O.2   144  LEU144     -0.2867
     81  CB        15.6900   60.5800   60.6920 C.3   144  LEU144      0.0270
     82  CG        15.9610   59.5320   59.6250 C.3   144  LEU144      0.0019
     83  CD1       16.7770   58.3750   60.2010 C.3   144  LEU144      0.0001
     84  CD2       14.6300   59.0220   59.0880 C.3   144  LEU144      0.0001
     85  N         19.5830   60.9540   57.6020 N.3   146  THR146     -0.1218
     86  CA        19.3780   60.8100   56.1540 C.3   146  THR146      0.1862
     87  C         18.2800   61.7580   55.6870 C.2   146  THR146      0.2287
     88  O         18.3630   62.3400   54.5890 O.2   146  THR146     -0.2866
     89  CB        19.0780   59.3230   55.7490 C.3   146  THR146      0.1770
     90  OG1       19.0010   59.2870   54.2860 O.3   146  THR146     -0.2211
     91  CG2       17.8250   58.7270   56.3950 C.3   146  THR146      0.0375
     92  N         18.7180   65.5860   53.6160 N.3   150  ARG150     -0.1245
     93  CA        17.8690   65.7010   52.4250 C.3   150  ARG150      0.1563
     94  C         17.2200   67.0730   52.3470 C.2   150  ARG150      0.2260
     95  O         17.3260   67.7770   51.3200 O.2   150  ARG150     -0.2867
     96  CB        16.8210   64.5950   52.3550 C.3   150  ARG150      0.0307
     97  CG        17.0480   63.5610   51.2580 C.3   150  ARG150      0.0489
     98  CD        16.0560   62.4470   51.3350 C.3   150  ARG150      0.2205
     99  NE        16.3720   61.4990   52.3940 N.pl3 150  ARG150     -0.0865
    100  CZ        15.7560   60.3290   52.5420 C.cat 150  ARG150      0.5346
    101  NH1       16.1780   59.4380   53.4290 N.pl3 150  ARG150      0.1354
    102  NH2       14.6360   60.0920   51.8650 N.pl3 150  ARG150      0.1354
    103  N          6.9160   60.3000   60.0460 N.3   176  ASN176     -0.1240
    104  CA         7.3370   60.3720   58.6370 C.3   176  ASN176      0.1653
    105  C          6.2950   59.6970   57.7420 C.2   176  ASN176      0.2266
    106  O          6.6390   58.8850   56.8780 O.2   176  ASN176     -0.2867
    107  CB         8.7520   59.8330   58.4660 C.3   176  ASN176      0.1155
    108  CG         9.7610   60.5300   59.3610 C.2   176  ASN176      0.2627
    109  OD1        9.6060   61.7220   59.6720 O.2   176  ASN176     -0.2716
    110  ND2       10.7150   59.7690   59.8820 N.am  176  ASN176     -0.0877
    111  N         11.3860   65.0110   53.0010 N.3   203  MET203     -0.1230
    112  CA        12.4730   64.0420   52.8220 C.3   203  MET203      0.1702
    113  C         12.0510   62.8780   51.9430 C.2   203  MET203      0.2592
    114  O         12.9170   62.1390   51.4290 O.2   203  MET203     -0.2718
    115  CB        13.0660   63.6110   54.1460 C.3   203  MET203      0.0401
    116  CG        12.1120   62.7630   54.9390 C.3   203  MET203      0.0596
    117  SD        12.7170   61.0330   54.8850 S.3   203  MET203     -0.1393
    118  CE        11.8680   60.3790   56.3410 C.3   203  MET203      0.0692
    119  N         10.7480   62.6700   51.8490 N.am  204  ASN204     -0.1974
    120  CA        10.1990   61.5430   51.0710 C.3   204  ASN204      0.1688
    121  C          8.7960   61.8660   50.5730 C.2   204  ASN204      0.2292
    122  O          8.2190   62.9140   50.9000 O.2   204  ASN204     -0.2864
    123  CB        10.3210   60.2280   51.8260 C.3   204  ASN204      0.1181
    124  CG         9.3730   60.1210   53.0090 C.2   204  ASN204      0.2629
    125  OD1        8.5520   61.0250   53.2430 O.2   204  ASN204     -0.2716
    126  ND2        9.5450   59.0720   53.8110 N.am  204  ASN204     -0.0877
    127  N         11.7520   59.2300   46.4320 N.3   231  ASN231     -0.1240
    128  CA        11.5470   57.7790   46.4780 C.3   231  ASN231      0.1653
    129  C         11.1030   57.2760   45.1000 C.2   231  ASN231      0.2266
    130  O         11.5580   56.2210   44.6330 O.2   231  ASN231     -0.2867
    131  CB        10.6320   57.3630   47.6150 C.3   231  ASN231      0.1155
    132  CG        11.3300   57.1970   48.9540 C.2   231  ASN231      0.2627
    133  OD1       12.4950   57.5920   49.1170 O.2   231  ASN231     -0.2716
    134  ND2       10.5540   56.8240   49.9730 N.am  231  ASN231     -0.0877
    135  N         19.1500   48.8880   46.9140 N.3   258  HIS258     -0.1241
    136  CA        19.1780   48.8810   48.3780 C.3   258  HIS258      0.1621
    137  C         18.8900   47.4800   48.9070 C.2   258  HIS258      0.2264
    138  O         19.6270   46.9560   49.7710 O.2   258  HIS258     -0.2867
    139  CB        18.2300   49.9010   49.0310 C.3   258  HIS258      0.0745
    140  CG        18.6840   51.3230   48.8840 C.ar  258  HIS258      0.0817
    141  ND1       18.4790   52.2990   49.8180 N.ar  258  HIS258     -0.2268
    142  CD2       19.2450   51.9400   47.8090 C.ar  258  HIS258      0.1154
    143  CE1       18.9230   53.4560   49.3510 C.ar  258  HIS258      0.1986
    144  NE2       19.4110   53.2620   48.1440 N.ar  258  HIS258     -0.2212
@<TRIPOS>BOND
     1   130   129    2
     2   129   128    1
     3   127   128    1
     4   128   131    1
     5   135   136    1
     6    40    41   ar
     7    40    38   ar
     8    41    39   ar
     9   131   132    1
    10    38    35   ar
    11   142   144   ar
    12   142   140   ar
    13   144   143   ar
    14    76    75    1
    15   136   137    1
    16   136   139    1
    17    39    37   ar
    18   140   139    1
    19   140   141   ar
    20   137   138    2
    21    28    29    1
    22   132   133    2
    23   132   134   am
    24    35    37   ar
    25    35    33   ar
    26    73    70    1
    27    73    74    1
    28    29    30    1
    29    29    32    1
    30    75    74    1
    31    31    30    2
    32   143   141   ar
    33    70    71    1
    34    70    69    1
    35    37    36   ar
    36    30    42   am
    37    71    72    2
    38    32    33    1
    39    33    34   ar
    40   121   122    2
    41   121   120    1
    42    36    34   ar
    43    42    43    1
    44    21    22    2
    45    21    20    1
    46   120   123    1
    47   120   119    1
    48    44    45    2
    49    44    43    1
    50    97    98    1
    51    97    96    1
    52    95    94    2
    53    98    99    1
    54   114   113    2
    55    43    46    1
    56    24    25    1
    57    24    23    2
    58    27    25   ar
    59   123   124    1
    60   119   113   am
    61   102   100    1
    62    20    23    1
    63    20    19    1
    64   113   112    1
    65    60    58   ar
    66    94    93    1
    67    96    93    1
    68    99   100    2
    69    93    92    1
    70    25    26   ar
    71   100   101    1
    72   112   111    1
    73   112   115    1
    74   124   125    2
    75   124   126   am
    76    46    47    1
    77    58    59   ar
    78    58    57    1
    79    47    49   ar
    80    47    48   ar
    81    49    51   ar
    82   115   116    1
    83    48    50   ar
    84    90    89    1
    85    51    52   ar
    86    57    54    1
    87    88    87    2
    88    53    54    1
    89    54    55    1
    90    50    52   ar
    91   117   116    1
    92   117   118    1
    93    13    12    2
    94    56    55    2
    95    87    86    1
    96    89    86    1
    97    89    91    1
    98    55    61   am
    99    12    11    1
   100    86    85    1
   101   106   105    2
   102    61    62    1
   103    14    11    1
   104    14    15    1
   105    68    66   ar
   106    11    10    1
   107   105   104    1
   108    17    16    2
   109     8     9    1
   110     8     7    1
   111    10     3   am
   112    15    16    1
   113    62    63    1
   114    62    65    1
   115    66    67   ar
   116    66    65    1
   117   107   104    1
   118   107   108    1
   119    16    18   am
   120   104   103    1
   121     6     7    1
   122     6     5    1
   123     1     2    1
   124    63    64    2
   125    84    82    1
   126     3     2    1
   127     3     4    2
   128   108   109    2
   129   108   110   am
   130    80    79    2
   131    82    83    1
   132    82    81    1
   133     2     5    1
   134    79    78    1
   135    81    78    1
   136    78    77    1
