@<TRIPOS>MOLECULE
tmp/9cgtA00.pdb
 250 245 0 0 0
SMALL
GASTEIGER

@<TRIPOS>ATOM
      1  N         63.5640   -1.2800   13.3440 N.3    47  LYS47      -0.1245
      2  CA        62.2950   -0.6530   13.7190 C.3    47  LYS47       0.1561
      3  C         61.8050   -1.2090   15.0570 C.2    47  LYS47       0.2260
      4  O         60.8250   -0.7210   15.6240 O.2    47  LYS47      -0.2867
      5  CB        61.2320   -0.9050   12.6500 C.3    47  LYS47       0.0271
      6  CG        61.4370   -0.1630   11.3470 C.3    47  LYS47       0.0035
      7  CD        61.0510    1.3080   11.4550 C.3    47  LYS47       0.0206
      8  CE        60.9340    1.9220   10.0590 C.3    47  LYS47       0.1093
      9  NZ        60.4740    3.3460   10.0660 N.3    47  LYS47      -0.1314
     10  N         52.8530   -0.4860    9.8140 N.3    89  TYR89      -0.1227
     11  CA        52.8130    0.4770    8.7100 C.3    89  TYR89       0.1736
     12  C         53.1600   -0.2110    7.3910 C.2    89  TYR89       0.2596
     13  O         54.3350   -0.4580    7.1040 O.2    89  TYR89      -0.2718
     14  CB        53.7960    1.6370    8.9420 C.3    89  TYR89       0.0548
     15  CG        53.3580    2.6590    9.9680 C.ar   89  TYR89      -0.0200
     16  CD1       52.2320    3.4550    9.7570 C.ar   89  TYR89      -0.0009
     17  CD2       54.0740    2.8340   11.1520 C.ar   89  TYR89      -0.0009
     18  CE1       51.8290    4.3980   10.7000 C.ar   89  TYR89       0.0417
     19  CE2       53.6820    3.7740   12.1020 C.ar   89  TYR89       0.0417
     20  CZ        52.5600    4.5510   11.8720 C.ar   89  TYR89       0.1957
     21  OH        52.1710    5.4720   12.8180 O.3    89  TYR89      -0.2866
     22  N         52.1360   -0.5080    6.5930 N.am   90  SER90      -0.1952
     23  CA        52.3110   -1.1680    5.2950 C.3    90  SER90       0.1924
     24  C         53.1440   -2.4490    5.3990 C.2    90  SER90       0.2314
     25  O         54.1650   -2.5940    4.7200 O.2    90  SER90      -0.2863
     26  CB        52.9490   -0.2050    4.2820 C.3    90  SER90       0.2116
     27  OG        52.1330    0.9340    4.0640 O.3    90  SER90      -0.2180
     28  N         55.2800   -3.5400    7.6290 N.3    92  VAL92      -0.1245
     29  CA        56.3870   -3.4870    8.5850 C.3    92  VAL92       0.1561
     30  C         55.9890   -3.0630   10.0140 C.2    92  VAL92       0.2260
     31  O         55.2360   -2.1060   10.2160 O.2    92  VAL92      -0.2867
     32  CB        57.5710   -2.6300    8.0280 C.3    92  VAL92       0.0252
     33  CG1       57.1310   -1.1980    7.7520 C.3    92  VAL92       0.0019
     34  CG2       58.7610   -2.6690    8.9790 C.3    92  VAL92       0.0019
     35  N         56.4310   -1.5090   13.6410 N.3    94  ASN94      -0.1240
     36  CA        57.1040   -0.3660   14.2560 C.3    94  ASN94       0.1653
     37  C         56.9010   -0.3410   15.7640 C.2    94  ASN94       0.2266
     38  O         55.8270   -0.6870   16.2500 O.2    94  ASN94      -0.2867
     39  CB        56.5460    0.9430   13.6850 C.3    94  ASN94       0.1155
     40  CG        57.1200    1.2880   12.3310 C.2    94  ASN94       0.2627
     41  OD1       57.9410    2.1980   12.2140 O.2    94  ASN94      -0.2716
     42  ND2       56.6760    0.5860   11.2970 N.am   94  ASN94      -0.0877
     43  N         60.8470    2.5540   20.0220 N.3    97  TYR97      -0.1227
     44  CA        62.2410    2.4720   20.4780 C.3    97  TYR97       0.1736
     45  C         62.9270    3.8400   20.5530 C.2    97  TYR97       0.2595
     46  O         63.8510    4.0370   21.3410 O.2    97  TYR97      -0.2718
     47  CB        63.0550    1.5490   19.5570 C.3    97  TYR97       0.0548
     48  CG        63.3650    2.1650   18.2070 C.ar   97  TYR97      -0.0200
     49  CD1       62.4390    2.1130   17.1640 C.ar   97  TYR97      -0.0009
     50  CD2       64.5620    2.8610   17.9950 C.ar   97  TYR97      -0.0009
     51  CE1       62.6910    2.7460   15.9450 C.ar   97  TYR97       0.0417
     52  CE2       64.8240    3.4980   16.7770 C.ar   97  TYR97       0.0417
     53  CZ        63.8840    3.4380   15.7590 C.ar   97  TYR97       0.1957
     54  OH        64.1300    4.0770   14.5640 O.3    97  TYR97      -0.2866
     55  N         62.4880    4.7640   19.7030 N.am   98  HIS98      -0.1975
     56  CA        63.0360    6.1190   19.6300 C.3    98  HIS98       0.1656
     57  C         62.6030    7.0360   20.7830 C.2    98  HIS98       0.2291
     58  O         63.2160    8.0780   21.0180 O.2    98  HIS98      -0.2864
     59  CB        62.6390    6.7400   18.2970 C.3    98  HIS98       0.0771
     60  CG        61.1900    6.5670   17.9720 C.ar   98  HIS98       0.0820
     61  ND1       60.7500    5.7540   16.9500 N.ar   98  HIS98      -0.2267
     62  CD2       60.0780    7.0610   18.5640 C.ar   98  HIS98       0.1154
     63  CE1       59.4290    5.7510   16.9300 C.ar   98  HIS98       0.1986
     64  NE2       58.9960    6.5370   17.8990 N.ar   98  HIS98      -0.2212
     65  N         59.8420    8.8300   20.9740 N.3   100  TYR100     -0.1227
     66  CA        59.0130    9.9490   20.5230 C.3   100  TYR100      0.1736
     67  C         57.5050    9.7310   20.5900 C.2   100  TYR100      0.2595
     68  O         56.7400   10.6400   20.2800 O.2   100  TYR100     -0.2718
     69  CB        59.4040   10.3650   19.1000 C.3   100  TYR100      0.0548
     70  CG        60.8000   10.9330   19.0010 C.ar  100  TYR100     -0.0200
     71  CD1       61.1540   12.0800   19.7110 C.ar  100  TYR100     -0.0009
     72  CD2       61.7790   10.3060   18.2300 C.ar  100  TYR100     -0.0009
     73  CE1       62.4500   12.5890   19.6630 C.ar  100  TYR100      0.0417
     74  CE2       63.0840   10.8050   18.1750 C.ar  100  TYR100      0.0417
     75  CZ        63.4120   11.9490   18.8970 C.ar  100  TYR100      0.1957
     76  OH        64.7000   12.4480   18.8770 O.3   100  TYR100     -0.2866
     77  N         57.0720    8.5290   20.9620 N.am  101  TRP101     -0.1976
     78  CA        55.6430    8.2370   21.0530 C.3   101  TRP101      0.1640
     79  C         55.2160    8.1380   22.5090 C.2   101  TRP101      0.2290
     80  O         54.8040    7.0800   22.9800 O.2   101  TRP101     -0.2864
     81  CB        55.3100    6.9460   20.3070 C.3   101  TRP101      0.0576
     82  CG        55.5200    7.0440   18.8300 C.ar  101  TRP101      0.0006
     83  CD1       55.6320    8.1880   18.0880 C.ar  101  TRP101      0.0946
     84  CD2       55.6610    5.9570   17.9110 C.ar  101  TRP101      0.0152
     85  NE1       55.8370    7.8790   16.7690 N.ar  101  TRP101     -0.2442
     86  CE2       55.8590    6.5160   16.6310 C.ar  101  TRP101      0.0810
     87  CE3       55.6410    4.5620   18.0460 C.ar  101  TRP101      0.0012
     88  CZ2       56.0380    5.7280   15.4910 C.ar  101  TRP101      0.0191
     89  CZ3       55.8190    3.7780   16.9130 C.ar  101  TRP101      0.0001
     90  CH2       56.0150    4.3660   15.6510 C.ar  101  TRP101      0.0015
     91  N         53.1960   16.3490   20.7110 N.3   140  HIS140     -0.1241
     92  CA        52.2240   15.2820   20.4940 C.3   140  HIS140      0.1621
     93  C         52.4160   14.1070   21.4350 C.2   140  HIS140      0.2264
     94  O         53.3480   14.0740   22.2400 O.2   140  HIS140     -0.2867
     95  CB        52.4350   14.7540   19.0700 C.3   140  HIS140      0.0745
     96  CG        53.8550   14.3500   18.7970 C.ar  140  HIS140      0.0817
     97  ND1       54.7620   15.1900   18.1840 N.ar  140  HIS140     -0.2268
     98  CD2       54.5520   13.2430   19.1500 C.ar  140  HIS140      0.1154
     99  CE1       55.9560   14.6220   18.1810 C.ar  140  HIS140      0.1986
    100  NE2       55.8560   13.4400   18.7620 N.ar  140  HIS140     -0.2212
    101  N         50.9040    7.9830   17.4270 N.3   143  PRO143     -0.2116
    102  CA        50.0550    7.8210   16.2410 C.3   143  PRO143      0.1372
    103  C         48.6100    7.5320   16.6220 C.2   143  PRO143      0.2244
    104  O         48.3470    6.7650   17.5490 O.2   143  PRO143     -0.2868
    105  CB        50.6870    6.6260   15.5360 C.3   143  PRO143      0.0268
    106  CG        52.1160    6.7700   15.8670 C.3   143  PRO143      0.0207
    107  CD        52.0750    7.0940   17.3400 C.3   143  PRO143      0.0892
    108  N         52.3900   20.9180    5.2720 N.3   183  PHE183     -0.1241
    109  CA        53.5990   21.7340    5.3720 C.3   183  PHE183      0.1605
    110  C         53.6520   22.9120    4.4040 C.2   183  PHE183      0.2264
    111  O         54.7380   23.3980    4.0850 O.2   183  PHE183     -0.2867
    112  CB        54.8510   20.8510    5.2130 C.3   183  PHE183      0.0534
    113  CG        54.8830   19.6680    6.1510 C.ar  183  PHE183     -0.0203
    114  CD1       55.2530   19.8280    7.4860 C.ar  183  PHE183     -0.0042
    115  CD2       54.4940   18.4030    5.7110 C.ar  183  PHE183     -0.0042
    116  CE1       55.2300   18.7480    8.3690 C.ar  183  PHE183     -0.0003
    117  CE2       54.4670   17.3170    6.5850 C.ar  183  PHE183     -0.0003
    118  CZ        54.8350   17.4900    7.9180 C.ar  183  PHE183     -0.0000
    119  N         51.1610   16.2480   12.8110 N.3   194  LEU194     -0.1231
    120  CA        52.4420   15.9470   12.2010 C.3   194  LEU194      0.1693
    121  C         52.2650   14.4690   11.8410 C.2   194  LEU194      0.2592
    122  O         52.4370   13.5900   12.6880 O.2   194  LEU194     -0.2718
    123  CB        53.5460   16.1220   13.2430 C.3   194  LEU194      0.0284
    124  CG        54.9340   16.4920   12.7440 C.3   194  LEU194      0.0019
    125  CD1       54.8460   17.8160   12.0100 C.3   194  LEU194      0.0001
    126  CD2       55.8950   16.5940   13.9200 C.3   194  LEU194      0.0001
    127  N         51.8470   14.2120   10.6010 N.am  195  TYR195     -0.1962
    128  CA        51.5820   12.8580   10.1050 C.3   195  TYR195      0.1771
    129  C         50.3280   12.3470   10.8150 C.2   195  TYR195      0.2620
    130  O         49.2620   12.9470   10.6740 O.2   195  TYR195     -0.2715
    131  CB        52.7890   11.9310   10.3240 C.3   195  TYR195      0.0574
    132  CG        54.0650   12.4600    9.6980 C.ar  195  TYR195     -0.0198
    133  CD1       54.1090   12.8040    8.3410 C.ar  195  TYR195     -0.0009
    134  CD2       55.2110   12.6710   10.4710 C.ar  195  TYR195     -0.0009
    135  CE1       55.2600   13.3510    7.7700 C.ar  195  TYR195      0.0417
    136  CE2       56.3670   13.2170    9.9130 C.ar  195  TYR195      0.0417
    137  CZ        56.3850   13.5580    8.5620 C.ar  195  TYR195      0.1957
    138  OH        57.5190   14.1150    8.0080 O.3   195  TYR195     -0.2866
    139  N         50.4360   11.2600   11.5730 N.am  196  ASP196     -0.1957
    140  CA        49.2780   10.7380   12.2890 C.3   196  ASP196      0.1840
    141  C         49.4090   10.9150   13.7980 C.2   196  ASP196      0.2621
    142  O         48.5800   10.4300   14.5690 O.2   196  ASP196     -0.2715
    143  CB        48.9980    9.2740   11.9190 C.3   196  ASP196      0.1450
    144  CG        50.1880    8.3530   12.1530 C.2   196  ASP196      0.3671
    145  OD1       51.2730    8.8160   12.5740 O.co2 196  ASP196     -0.2456
    146  OD2       50.0230    7.1400   11.9010 O.co2 196  ASP196     -0.2456
    147  N         50.4520   11.6350   14.2030 N.am  197  LEU197     -0.1977
    148  CA        50.7160   11.9240   15.6070 C.3   197  LEU197      0.1596
    149  C         49.6760   12.9060   16.1470 C.2   197  LEU197      0.2287
    150  O         49.4950   13.9900   15.5880 O.2   197  LEU197     -0.2864
    151  CB        52.1150   12.5160   15.7580 C.3   197  LEU197      0.0297
    152  CG        53.2690   11.5890   15.3830 C.3   197  LEU197      0.0022
    153  CD1       54.5820   12.3480   15.4130 C.3   197  LEU197      0.0001
    154  CD2       53.3170   10.4210   16.3460 C.3   197  LEU197      0.0001
    155  N         66.4430   19.1490   25.1320 N.3   227  ARG227     -0.1245
    156  CA        66.3970   19.2760   23.6780 C.3   227  ARG227      0.1563
    157  C         64.9150   19.1320   23.3470 C.2   227  ARG227      0.2260
    158  O         64.3470   18.0460   23.4760 O.2   227  ARG227     -0.2867
    159  CB        67.1870   18.1610   22.9840 C.3   227  ARG227      0.0307
    160  CG        67.5050   18.4250   21.4940 C.3   227  ARG227      0.0489
    161  CD        66.3040   18.3700   20.5350 C.3   227  ARG227      0.2205
    162  NE        65.8050   17.0120   20.3330 N.pl3 227  ARG227     -0.0865
    163  CZ        65.2710   16.5440   19.2030 C.cat 227  ARG227      0.5346
    164  NH1       65.1490   17.3150   18.1380 N.pl3 227  ARG227      0.1354
    165  NH2       64.8680   15.2860   19.1340 N.pl3 227  ARG227      0.1354
    166  N         61.7890   18.7610   21.0280 N.3   229  ASP229     -0.1225
    167  CA        61.4730   18.2240   19.7160 C.3   229  ASP229      0.1805
    168  C         60.4080   19.0480   18.9850 C.2   229  ASP229      0.2597
    169  O         59.5110   19.6160   19.6110 O.2   229  ASP229     -0.2718
    170  CB        61.0080   16.7690   19.8790 C.3   229  ASP229      0.1424
    171  CG        60.5570   16.1370   18.5740 C.2   229  ASP229      0.3668
    172  OD1       61.4100   15.9280   17.6810 O.co2 229  ASP229     -0.2456
    173  OD2       59.3460   15.8400   18.4530 O.co2 229  ASP229     -0.2456
    174  N         60.5660   19.1510   17.6640 N.am  230  ALA230     -0.1979
    175  CA        59.6270   19.8420   16.7740 C.3   230  ALA230      0.1597
    176  C         59.1400   21.2300   17.1960 C.2   230  ALA230      0.2287
    177  O         57.9440   21.5280   17.1070 O.2   230  ALA230     -0.2864
    178  CB        58.4230   18.9270   16.5010 C.3   230  ALA230      0.0319
    179  N         59.2390   23.8920   15.6930 N.3   232  LYS232     -0.1231
    180  CA        58.6490   24.5580   14.5380 C.3   232  LYS232      0.1693
    181  C         57.1580   24.2120   14.4130 C.2   232  LYS232      0.2592
    182  O         56.4190   24.8550   13.6590 O.2   232  LYS232     -0.2718
    183  CB        59.4050   24.1030   13.2820 C.3   232  LYS232      0.0285
    184  CG        58.9170   24.6660   11.9640 C.3   232  LYS232      0.0035
    185  CD        59.6870   24.0440   10.8040 C.3   232  LYS232      0.0206
    186  CE        59.1970   24.5810    9.4630 C.3   232  LYS232      0.1093
    187  NZ        60.0280   24.0530    8.3370 N.3   232  LYS232     -0.1314
    188  N         56.7100   23.2330   15.1970 N.am  233  HIS233     -0.1976
    189  CA        55.3300   22.7840   15.1320 C.3   233  HIS233      0.1656
    190  C         54.4490   23.1230   16.3260 C.2   233  HIS233      0.2291
    191  O         53.3520   22.5820   16.4790 O.2   233  HIS233     -0.2864
    192  CB        55.3090   21.2930   14.7980 C.3   233  HIS233      0.0771
    193  CG        56.0290   20.9710   13.5270 C.ar  233  HIS233      0.0820
    194  ND1       55.5010   21.2510   12.2840 N.ar  233  HIS233     -0.2267
    195  CD2       57.2790   20.4980   13.3040 C.ar  233  HIS233      0.1154
    196  CE1       56.3970   20.9760   11.3530 C.ar  233  HIS233      0.1986
    197  NE2       57.4840   20.5170   11.9450 N.ar  233  HIS233     -0.2212
    198  N         64.7060   21.8030   17.9780 N.3   257  ALA257     -0.1245
    199  CA        64.9320   21.3200   16.6250 C.3   257  ALA257      0.1562
    200  C         63.9940   21.9490   15.6140 C.2   257  ALA257      0.2260
    201  O         62.8040   21.6250   15.5690 O.2   257  ALA257     -0.2867
    202  CB        64.8040   19.8150   16.5780 C.3   257  ALA257      0.0290
    203  N         64.0110   22.1890   11.7710 N.3   259  PHE259     -0.1241
    204  CA        64.6610   21.7010   10.5660 C.3   259  PHE259      0.1605
    205  C         64.8310   22.7140    9.4340 C.2   259  PHE259      0.2264
    206  O         63.9250   23.4910    9.1370 O.2   259  PHE259     -0.2867
    207  CB        63.9490   20.4430   10.0490 C.3   259  PHE259      0.0534
    208  CG        64.6540   19.7840    8.8900 C.ar  259  PHE259     -0.0203
    209  CD1       65.7230   18.9190    9.1110 C.ar  259  PHE259     -0.0042
    210  CD2       64.2850   20.0700    7.5750 C.ar  259  PHE259     -0.0042
    211  CE1       66.4220   18.3510    8.0420 C.ar  259  PHE259     -0.0003
    212  CE2       64.9760   19.5080    6.5000 C.ar  259  PHE259     -0.0003
    213  CZ        66.0490   18.6470    6.7350 C.ar  259  PHE259     -0.0000
    214  N         70.0450   11.7650   13.6680 N.3   327  HIS327     -0.1226
    215  CA        68.9790   10.8360   13.2900 C.3   327  HIS327      0.1752
    216  C         68.0350   11.2930   12.1740 C.2   327  HIS327      0.2596
    217  O         67.2420   10.4980   11.6780 O.2   327  HIS327     -0.2718
    218  CB        68.1590   10.4770   14.5240 C.3   327  HIS327      0.0759
    219  CG        67.5320   11.6630   15.1850 C.ar  327  HIS327      0.0818
    220  ND1       68.2730   12.6180   15.8490 N.ar  327  HIS327     -0.2268
    221  CD2       66.2450   12.0790   15.2350 C.ar  327  HIS327      0.1154
    222  CE1       67.4670   13.5740   16.2750 C.ar  327  HIS327      0.1986
    223  NE2       66.2320   13.2720   15.9150 N.ar  327  HIS327     -0.2212
    224  N         68.1130   12.5620   11.7860 N.am  328  ASP328     -0.1974
    225  CA        67.2480   13.1030   10.7310 C.3   328  ASP328      0.1709
    226  C         67.8560   13.0940    9.3330 C.2   328  ASP328      0.2293
    227  O         67.2280   13.5690    8.3850 O.2   328  ASP328     -0.2864
    228  CB        66.8370   14.5480   11.0540 C.3   328  ASP328      0.1436
    229  CG        65.7950   14.6390   12.1530 C.2   328  ASP328      0.3671
    230  OD1       64.9510   13.7170   12.2690 O.co2 328  ASP328     -0.2456
    231  OD2       65.8160   15.6520   12.8900 O.co2 328  ASP328     -0.2456
    232  N         66.1450    6.8450    7.6910 N.3   371  ASP371     -0.1239
    233  CA        65.4950    6.2590    8.8600 C.3   371  ASP371      0.1674
    234  C         65.0150    4.8790    8.3660 C.2   371  ASP371      0.2266
    235  O         64.3620    4.7940    7.3260 O.2   371  ASP371     -0.2867
    236  CB        64.3100    7.1670    9.2450 C.3   371  ASP371      0.1410
    237  CG        63.5370    6.6800   10.4560 C.2   371  ASP371      0.3668
    238  OD1       64.0480    5.8300   11.2090 O.co2 371  ASP371     -0.2456
    239  OD2       62.4050    7.1650   10.6650 O.co2 371  ASP371     -0.2456
    240  N         70.2770    4.6390   12.5500 N.3   375  ARG375     -0.1245
    241  CA        70.1500    4.3880   13.9840 C.3   375  ARG375      0.1563
    242  C         70.5570    2.9500   14.3300 C.2   375  ARG375      0.2260
    243  O         69.9230    2.2860   15.1540 O.2   375  ARG375     -0.2867
    244  CB        68.7140    4.6680   14.4510 C.3   375  ARG375      0.0307
    245  CG        68.3400    6.1420   14.4640 C.3   375  ARG375      0.0489
    246  CD        67.3800    6.5250   13.3450 C.3   375  ARG375      0.2205
    247  NE        65.9970    6.5820   13.8030 N.pl3 375  ARG375     -0.0865
    248  CZ        65.1970    7.6360   13.6600 C.cat 375  ARG375      0.5346
    249  NH1       65.6340    8.7360   13.0680 N.pl3 375  ARG375      0.1354
    250  NH2       63.9460    7.5850   14.0950 N.pl3 375  ARG375      0.1354
@<TRIPOS>BOND
     1    27    26    1
     2   111   110    2
     3    26    23    1
     4   110   109    1
     5    25    24    2
     6   112   109    1
     7   112   113    1
     8   108   109    1
     9    23    24    1
    10    23    22    1
    11   115   113   ar
    12   115   117   ar
    13   113   114   ar
    14   212   213   ar
    15   212   210   ar
    16   117   118   ar
    17    22    12   am
    18   213   211   ar
    19    13    12    2
    20   235   234    2
    21    12    11    1
    22   114   116   ar
    23   210   208   ar
    24    28    29    1
    25   232   233    1
    26    33    32    1
    27   135   133   ar
    28   135   137   ar
    29   118   116   ar
    30   138   137    1
    31    32    29    1
    32    32    34    1
    33   211   209   ar
    34   187   186    1
    35   133   132   ar
    36   234   233    1
    37   227   226    2
    38   137   136   ar
    39    29    30    1
    40    11    14    1
    41    11    10    1
    42   233   236    1
    43   208   209   ar
    44   208   207    1
    45    14    15    1
    46   206   205    2
    47   236   237    1
    48   226   225    1
    49   205   204    1
    50   186   185    1
    51   132   131    1
    52   132   134   ar
    53    16    15   ar
    54    16    18   ar
    55   136   134   ar
    56    15    17   ar
    57    30    31    2
    58   207   204    1
    59     8     9    1
    60     8     7    1
    61   128   131    1
    62   128   127    1
    63   128   129    1
    64   237   239   ar
    65   237   238   ar
    66   204   203    1
    67   127   121   am
    68   130   129    2
    69    18    20   ar
    70   225   228    1
    71   225   224    1
    72   185   184    1
    73   129   139   am
    74   228   229    1
    75    17    19   ar
    76    42    40   am
    77     6     7    1
    78     6     5    1
    79   196   197   ar
    80   196   194   ar
    81   139   140    1
    82   217   216    2
    83   224   216   am
    84   121   120    1
    85   121   122    2
    86    20    19   ar
    87    20    21    1
    88   146   144   ar
    89   143   144    1
    90   143   140    1
    91   197   195   ar
    92   184   183    1
    93   125   124    1
    94   229   230   ar
    95   229   231   ar
    96   144   145   ar
    97   216   215    1
    98   120   119    1
    99   120   123    1
   100    41    40    2
   101   194   193   ar
   102   140   141    1
   103    40    39    1
   104   240   241    1
   105     5     2    1
   106   124   123    1
   107   124   126    1
   108   249   248    1
   109   183   180    1
   110   215   214    1
   111   215   218    1
   112   195   193   ar
   113     1     2    1
   114   246   247    1
   115   246   245    1
   116   193   192    1
   117    35    36    1
   118   182   181    2
   119   248   247    2
   120   248   250    1
   121    39    36    1
   122     2     3    1
   123   141   147   am
   124   141   142    2
   125   241   242    1
   126   241   244    1
   127   147   148    1
   128    36    37    1
   129   242   243    2
   130   181   180    1
   131   181   188   am
   132   244   245    1
   133   218   219    1
   134   180   179    1
   135    54    53    1
   136   192   189    1
   137     3     4    2
   138   189   188    1
   139   189   190    1
   140   219   221   ar
   141   219   220   ar
   142   221   223   ar
   143   152   153    1
   144   152   151    1
   145   152   154    1
   146    88    90   ar
   147    88    86   ar
   148   105   106    1
   149   105   102    1
   150   201   200    2
   151   150   149    2
   152   148   151    1
   153   148   149    1
   154   200   199    1
   155    90    89   ar
   156    53    51   ar
   157    53    52   ar
   158    37    38    2
   159   220   222   ar
   160   106   107    1
   161   223   222   ar
   162    51    49   ar
   163   102   103    1
   164   102   101    1
   165   190   191    2
   166   178   175    1
   167   202   199    1
   168   103   104    2
   169   199   198    1
   170    86    85   ar
   171    86    84   ar
   172    85    83   ar
   173   175   176    1
   174   175   174    1
   175    52    50   ar
   176    89    87   ar
   177    63    61   ar
   178    63    64   ar
   179    61    60   ar
   180   177   176    2
   181    49    48   ar
   182   107   101    1
   183   174   168   am
   184   172   171   ar
   185    64    62   ar
   186    84    87   ar
   187    84    82   ar
   188    60    59    1
   189    60    62   ar
   190    50    48   ar
   191    83    82   ar
   192   164   163    1
   193    74    72   ar
   194    74    75   ar
   195    99    97   ar
   196    99   100   ar
   197    97    96   ar
   198    48    47    1
   199    72    70   ar
   200    59    56    1
   201   173   171   ar
   202   171   170    1
   203   100    98   ar
   204    96    95    1
   205    96    98   ar
   206    82    81    1
   207    76    75    1
   208    75    73   ar
   209   168   169    2
   210   168   167    1
   211    70    69    1
   212    70    71   ar
   213    95    92    1
   214    69    66    1
   215   165   163    1
   216   163   162    2
   217    47    44    1
   218    56    55    1
   219    56    57    1
   220    73    71   ar
   221    55    45   am
   222   167   170    1
   223   167   166    1
   224    43    44    1
   225    68    67    2
   226    81    78    1
   227   162   161    1
   228    44    45    1
   229    92    91    1
   230    92    93    1
   231    66    67    1
   232    66    65    1
   233   161   160    1
   234    45    46    2
   235    67    77   am
   236    57    58    2
   237    77    78    1
   238    78    79    1
   239    93    94    2
   240   160   159    1
   241    79    80    2
   242   159   156    1
   243   157   158    2
   244   157   156    1
   245   156   155    1
