@<TRIPOS>MOLECULE
tmp/9estA00.pdb
 72 69 0 0 0
SMALL
GASTEIGER

@<TRIPOS>ATOM
      1  N         -0.7380   25.8270   32.6180 N.3    29  THR29      -0.1203
      2  CA        -1.6650   24.7760   33.0220 C.3    29  THR29       0.1994
      3  C         -2.3830   25.0920   34.3150 C.2    29  THR29       0.2618
      4  O         -3.5990   24.8870   34.4480 O.2    29  THR29      -0.2717
      5  CB        -1.0520   23.3460   33.0500 C.3    29  THR29       0.1784
      6  OG1       -2.0820   22.3890   33.1920 O.3    29  THR29      -0.2211
      7  CG2       -0.1000   23.2100   34.2160 C.3    29  THR29       0.0376
      8  N         -1.6360   25.5840   35.2760 N.am   30  CYS30      -0.1969
      9  CA        -2.1920   25.8680   36.5660 C.3    30  CYS30       0.1712
     10  C         -1.5730   27.0820   37.1760 C.2    30  CYS30       0.2296
     11  O         -0.4800   27.5340   36.7830 O.2    30  CYS30      -0.2864
     12  CB        -1.9810   24.6550   37.4960 C.3    30  CYS30       0.0983
     13  SG        -3.1860   23.3280   37.3550 S.3    30  CYS30      -0.0798
     14  N         -3.9740   17.7740   41.7100 N.3    45  HIS45      -0.1226
     15  CA        -4.4870   17.4380   40.4240 C.3    45  HIS45       0.1752
     16  C         -3.7750   18.1250   39.2700 C.2    45  HIS45       0.2596
     17  O         -3.8810   17.6980   38.1130 O.2    45  HIS45      -0.2718
     18  CB        -6.0120   17.5300   40.3470 C.3    45  HIS45       0.0759
     19  CG        -6.5940   18.8560   39.9240 C.ar   45  HIS45       0.0818
     20  ND1       -6.4860   20.0000   40.7100 N.ar   45  HIS45      -0.2268
     21  CD2       -7.3420   19.1720   38.8270 C.ar   45  HIS45       0.1154
     22  CE1       -7.1350   20.9700   40.0690 C.ar   45  HIS45       0.1986
     23  NE2       -7.6410   20.5110   38.9280 N.ar   45  HIS45      -0.2212
     24  N         -3.0070   19.1640   39.5940 N.am   46  CYS46      -0.1970
     25  CA        -2.2410   19.8960   38.5820 C.3    46  CYS46       0.1712
     26  C         -1.0790   19.0840   38.0510 C.2    46  CYS46       0.2296
     27  O         -0.7160   19.1910   36.8750 O.2    46  CYS46      -0.2864
     28  CB        -1.7560   21.2650   39.0970 C.3    46  CYS46       0.0983
     29  SG        -3.0830   22.4900   39.1910 S.3    46  CYS46      -0.0798
     30  N        -11.7350   13.8860   43.7310 N.3    88  VAL88      -0.1245
     31  CA       -11.4330   15.2690   44.0650 C.3    88  VAL88       0.1561
     32  C        -12.3000   15.7780   45.2110 C.2    88  VAL88       0.2260
     33  O        -11.8610   16.5700   46.0380 O.2    88  VAL88      -0.2867
     34  CB       -11.4400   16.2130   42.8610 C.3    88  VAL88       0.0252
     35  CG1      -11.2160   17.6420   43.3280 C.3    88  VAL88       0.0019
     36  CG2      -10.3050   15.8380   41.9170 C.3    88  VAL88       0.0019
     37  N        -11.3030   26.8260   34.4240 N.3   185  GLN185     -0.1231
     38  CA       -10.1820   25.9640   34.0470 C.3   185  GLN185      0.1698
     39  C         -8.9170   26.7500   33.8020 C.2   185  GLN185      0.2592
     40  O         -8.9260   27.7350   33.0660 O.2   185  GLN185     -0.2718
     41  CB       -10.5330   25.1070   32.8170 C.3   185  GLN185      0.0381
     42  CG       -11.3840   23.8680   33.1520 C.3   185  GLN185      0.0905
     43  CD       -12.8460   24.1890   33.3520 C.2   185  GLN185      0.2608
     44  OE1      -13.2960   25.3150   33.1030 O.2   185  GLN185     -0.2717
     45  NE2      -13.5870   23.2190   33.8670 N.am  185  GLN185     -0.0878
     46  N         -7.8200   26.3120   34.4510 N.am  186  GLY186     -0.1957
     47  CA        -6.5290   26.9770   34.3280 C.3   186  GLY186      0.1869
     48  C         -6.2260   27.8730   35.5220 C.2   186  GLY186      0.2309
     49  O         -5.1190   28.3740   35.6710 O.2   186  GLY186     -0.2863
     50  N         -7.0070   26.7870   38.6300 N.3   188  SER188     -0.1217
     51  CA        -6.8160   25.9340   39.7480 C.3   188  SER188      0.1889
     52  C         -5.3520   25.6760   40.1240 C.2   188  SER188      0.2288
     53  O         -4.4470   25.7260   39.3000 O.2   188  SER188     -0.2866
     54  CB        -7.7000   24.7090   39.7460 C.3   188  SER188      0.2089
     55  OG        -7.9030   24.3010   38.4320 O.3   188  SER188     -0.2183
     56  N         -9.3900   24.4680   43.6980 N.3   207  SER207     -0.1202
     57  CA        -9.5620   23.0670   43.4900 C.3   207  SER207      0.2020
     58  C        -10.5350   22.7140   42.3750 C.2   207  SER207      0.2618
     59  O        -10.1570   22.0530   41.4160 O.2   207  SER207     -0.2717
     60  CB        -9.9160   22.3460   44.7820 C.3   207  SER207      0.2103
     61  OG        -9.7250   20.9540   44.6280 O.3   207  SER207     -0.2182
     62  N        -11.8170   23.1170   42.5200 N.am  208  PHE208     -0.1975
     63  CA       -12.7850   22.7520   41.5200 C.3   208  PHE208      0.1639
     64  C        -14.0360   23.6110   41.4890 C.2   208  PHE208      0.2290
     65  O        -14.3610   24.3290   42.4360 O.2   208  PHE208     -0.2864
     66  CB       -13.1740   21.2560   41.6680 C.3   208  PHE208      0.0560
     67  CG       -14.0020   20.9190   42.9100 C.ar  208  PHE208     -0.0200
     68  CD1      -15.3790   21.1560   42.9420 C.ar  208  PHE208     -0.0042
     69  CD2      -13.4080   20.3490   44.0360 C.ar  208  PHE208     -0.0042
     70  CE1      -16.1490   20.8490   44.0650 C.ar  208  PHE208     -0.0003
     71  CE2      -14.1610   20.0190   45.1650 C.ar  208  PHE208     -0.0003
     72  CZ       -15.5330   20.2790   45.1790 C.ar  208  PHE208     -0.0000
@<TRIPOS>BOND
     1     1     2    1
     2    41    42    1
     3    41    38    1
     4     2     5    1
     5     2     3    1
     6     5     6    1
     7     5     7    1
     8    40    39    2
     9    44    43    2
    10    42    43    1
    11    43    45   am
    12    39    38    1
    13    39    46   am
    14    38    37    1
    15     3     4    2
    16     3     8   am
    17    47    46    1
    18    47    48    1
    19     8     9    1
    20    48    49    2
    21     9    10    1
    22     9    12    1
    23    11    10    2
    24    27    26    2
    25    13    12    1
    26    13    29    1
    27    26    25    1
    28    17    16    2
    29    55    54    1
    30    25    28    1
    31    25    24    1
    32    50    51    1
    33    21    23   ar
    34    21    19   ar
    35    23    22   ar
    36    28    29    1
    37    16    24   am
    38    16    15    1
    39    53    52    2
    40    54    51    1
    41    51    52    1
    42    19    18    1
    43    19    20   ar
    44    22    20   ar
    45    18    15    1
    46    15    14    1
    47    59    58    2
    48    64    63    1
    49    64    65    2
    50    63    66    1
    51    63    62    1
    52    66    67    1
    53    36    34    1
    54    58    62   am
    55    58    57    1
    56    34    35    1
    57    34    31    1
    58    67    68   ar
    59    67    69   ar
    60    68    70   ar
    61    57    56    1
    62    57    60    1
    63    30    31    1
    64    69    71   ar
    65    31    32    1
    66    70    72   ar
    67    61    60    1
    68    71    72   ar
    69    32    33    2
