@<TRIPOS>MOLECULE
tmp/9hvpB00.pdb
 112 105 0 0 0
SMALL
GASTEIGER

@<TRIPOS>ATOM
      1  N        -21.5420   19.6250   34.2290 N.3     8  ARG8       -0.1245
      2  CA       -20.9850   19.2950   32.9180 C.3     8  ARG8        0.1563
      3  C        -21.8260   19.8690   31.7710 C.2     8  ARG8        0.2260
      4  O        -23.0170   19.5190   31.7060 O.2     8  ARG8       -0.2867
      5  CB       -20.8350   17.7690   32.7940 C.3     8  ARG8        0.0307
      6  CG       -19.3510   17.5240   32.6940 C.3     8  ARG8        0.0489
      7  CD       -18.8830   16.0830   32.8300 C.3     8  ARG8        0.2205
      8  NE       -19.0540   15.5800   34.1880 N.pl3   8  ARG8       -0.0865
      9  CZ       -18.6880   14.3450   34.5730 C.cat   8  ARG8        0.5346
     10  NH1      -18.0980   13.5190   33.6800 N.pl3   8  ARG8        0.1354
     11  NH2      -18.9270   13.9700   35.8620 N.pl3   8  ARG8        0.1354
     12  N        -20.4370   17.0050   25.3080 N.3    23  LEU23      -0.1245
     13  CA       -19.7000   17.9480   26.1300 C.3    23  LEU23       0.1561
     14  C        -19.2120   19.0760   25.2130 C.2    23  LEU23       0.2260
     15  O        -18.8570   18.8340   24.0490 O.2    23  LEU23      -0.2867
     16  CB       -18.4580   17.2730   26.6140 C.3    23  LEU23       0.0270
     17  CG       -17.9900   17.1580   28.0430 C.3    23  LEU23       0.0019
     18  CD1      -16.5000   16.7260   27.9950 C.3    23  LEU23       0.0001
     19  CD2      -18.2140   18.4230   28.8440 C.3    23  LEU23       0.0001
     20  N        -16.3330   21.2510   25.0470 N.3    25  ASP25      -0.1239
     21  CA       -14.9920   21.2220   25.5040 C.3    25  ASP25       0.1674
     22  C        -14.0490   22.2250   24.8750 C.2    25  ASP25       0.2266
     23  O        -13.4810   22.0050   23.8170 O.2    25  ASP25      -0.2867
     24  CB       -14.4860   19.8490   25.2570 C.3    25  ASP25       0.1410
     25  CG       -13.1910   19.5770   25.9560 C.2    25  ASP25       0.3668
     26  OD1      -12.7880   20.2910   26.8560 O.co2  25  ASP25      -0.2456
     27  OD2      -12.5560   18.6120   25.6090 O.co2  25  ASP25      -0.2456
     28  N        -11.2410   22.6370   26.0770 N.3    27  GLY27      -0.1210
     29  CA        -9.9370   22.0370   26.2380 C.3    27  GLY27       0.1956
     30  C         -9.5440   21.1930   25.0450 C.2    27  GLY27       0.2612
     31  O         -8.3600   21.0000   24.8660 O.2    27  GLY27      -0.2717
     32  N        -10.4270   20.6730   24.1900 N.am   28  ALA28      -0.1965
     33  CA       -10.0810   19.9460   22.9770 C.3    28  ALA28       0.1728
     34  C        -10.0470   20.8290   21.7180 C.2    28  ALA28       0.2616
     35  O        -10.9720   21.5740   21.3380 O.2    28  ALA28      -0.2715
     36  CB       -11.1020   18.8950   22.6820 C.3    28  ALA28       0.0334
     37  N         -8.9150   20.7140   21.0200 N.am   29  ASP29      -0.1957
     38  CA        -8.7210   21.4250   19.7840 C.3    29  ASP29       0.1840
     39  C         -9.6120   20.8540   18.7210 C.2    29  ASP29       0.2622
     40  O         -9.9110   21.5720   17.7620 O.2    29  ASP29      -0.2715
     41  CB        -7.3280   21.2930   19.2400 C.3    29  ASP29       0.1450
     42  CG        -6.1730   21.8930   20.0330 C.2    29  ASP29       0.3671
     43  OD1       -6.3980   22.7160   20.9230 O.co2  29  ASP29      -0.2456
     44  OD2       -5.0260   21.5200   19.7280 O.co2  29  ASP29      -0.2456
     45  N        -10.0010   19.5800   18.9430 N.am   30  ASP30      -0.1971
     46  CA       -10.7390   18.7340   18.0070 C.3    30  ASP30       0.1709
     47  C        -12.1130   18.2310   18.4690 C.2    30  ASP30       0.2293
     48  O        -12.2830   18.1100   19.6770 O.2    30  ASP30      -0.2864
     49  CB        -9.8200   17.5440   17.6920 C.3    30  ASP30       0.1436
     50  CG        -8.8780   17.6920   16.5010 C.2    30  ASP30       0.3671
     51  OD1       -9.2840   18.2670   15.4850 O.co2  30  ASP30      -0.2456
     52  OD2       -7.7570   17.1850   16.5630 O.co2  30  ASP30      -0.2456
     53  N        -14.3330   15.0550   18.9300 N.3    32  VAL32      -0.1245
     54  CA       -14.2130   13.6060   18.8230 C.3    32  VAL32       0.1561
     55  C        -15.5010   12.9740   19.3220 C.2    32  VAL32       0.2260
     56  O        -15.9890   13.3490   20.4040 O.2    32  VAL32      -0.2867
     57  CB       -12.9750   12.9500   19.5320 C.3    32  VAL32       0.0252
     58  CG1      -12.9120   13.2160   20.9920 C.3    32  VAL32       0.0019
     59  CG2      -12.9550   11.4410   19.2680 C.3    32  VAL32       0.0019
     60  N         -5.2340   10.9670   18.0220 N.3    47  ILE47      -0.1231
     61  CA        -5.2370   12.1600   18.8790 C.3    47  ILE47       0.1692
     62  C         -4.7420   11.8310   20.3240 C.2    47  ILE47       0.2593
     63  O         -4.7680   10.6740   20.7860 O.2    47  ILE47      -0.2718
     64  CB        -6.6550   12.7600   18.9250 C.3    47  ILE47       0.0266
     65  CG1       -7.6610   11.6870   19.3860 C.3    47  ILE47       0.0019
     66  CG2       -7.0420   13.3230   17.5570 C.3    47  ILE47       0.0020
     67  CD1       -9.0590   12.2040   19.7060 C.3    47  ILE47       0.0001
     68  N         -4.2740   12.8160   21.0870 N.am   48  GLY48      -0.1942
     69  CA        -3.8740   12.5850   22.4490 C.3    48  GLY48       0.2014
     70  C         -4.5120   13.5590   23.4310 C.2    48  GLY48       0.2639
     71  O         -4.7330   14.7440   23.1260 O.2    48  GLY48      -0.2714
     72  N         -4.8290   13.0040   24.6020 N.am   49  GLY49      -0.1939
     73  CA        -5.3830   13.7070   25.7390 C.3    49  GLY49       0.2014
     74  C         -4.5620   13.2120   26.9200 C.2    49  GLY49       0.2638
     75  O         -3.3580   12.9540   26.8230 O.2    49  GLY49      -0.2714
     76  N         -5.1060   12.9960   28.1010 N.am   50  ILE50      -0.1977
     77  CA        -4.3200   12.5240   29.2350 C.3    50  ILE50       0.1596
     78  C         -4.3730   10.9750   29.3140 C.2    50  ILE50       0.2287
     79  O         -5.3250   10.3040   28.8440 O.2    50  ILE50      -0.2864
     80  CB        -4.6800   13.3640   30.5190 C.3    50  ILE50       0.0276
     81  CG1       -6.0000   13.1860   31.1320 C.3    50  ILE50       0.0022
     82  CG2       -4.5570   14.8450   30.1970 C.3    50  ILE50       0.0022
     83  CD1       -5.9290   11.9700   32.0420 C.3    50  ILE50       0.0001
     84  N        -13.6500    7.2500   22.6190 N.3    80  THR80      -0.1204
     85  CA       -13.7790    8.2920   23.6090 C.3    80  THR80       0.1979
     86  C        -14.7700    7.8550   24.6530 C.2    80  THR80       0.2460
     87  O        -15.6770    7.0900   24.3210 O.2    80  THR80      -0.2732
     88  CB       -14.1810    9.6350   22.9790 C.3    80  THR80       0.1783
     89  OG1      -14.2880   10.5530   24.0590 O.3    80  THR80      -0.2211
     90  CG2      -15.4240    9.5550   22.1300 C.3    80  THR80       0.0376
     91  N        -14.6140    8.2790   25.9170 N.am   81  PRO81      -0.2717
     92  CA       -15.6660    8.1890   26.9340 C.3    81  PRO81       0.1535
     93  C        -16.9140    9.0610   26.7970 C.2    81  PRO81       0.2598
     94  O        -17.9940    8.6510   27.2260 O.2    81  PRO81      -0.2715
     95  CB       -14.8910    8.4090   28.2280 C.3    81  PRO81       0.0310
     96  CG       -13.6470    9.1390   27.8350 C.3    81  PRO81       0.0237
     97  CD       -13.2970    8.4860   26.5340 C.3    81  PRO81       0.0939
     98  N        -16.7640   10.2740   26.2150 N.am   82  VAL82      -0.1978
     99  CA       -17.8040   11.2960   25.9930 C.3    82  VAL82       0.1596
    100  C        -17.6450   11.9150   24.6200 C.2    82  VAL82       0.2287
    101  O        -16.5190   11.9530   24.1340 O.2    82  VAL82      -0.2864
    102  CB       -17.7580   12.4980   26.9590 C.3    82  VAL82       0.0276
    103  CG1      -18.2580   12.0870   28.3310 C.3    82  VAL82       0.0022
    104  CG2      -16.3560   13.1080   27.0220 C.3    82  VAL82       0.0022
    105  N        -17.2020   15.0080   22.3310 N.3    84  ILE84      -0.1245
    106  CA       -16.5220   16.2390   22.6660 C.3    84  ILE84       0.1561
    107  C        -16.7640   17.1700   21.5110 C.2    84  ILE84       0.2260
    108  O        -16.5250   16.7520   20.3910 O.2    84  ILE84      -0.2867
    109  CB       -15.0050   15.8310   22.9330 C.3    84  ILE84       0.0252
    110  CG1      -14.9870   15.2830   24.3540 C.3    84  ILE84       0.0019
    111  CG2      -14.0110   16.9600   22.8490 C.3    84  ILE84       0.0019
    112  CD1      -13.8200   14.4420   24.8070 C.3    84  ILE84       0.0001
@<TRIPOS>BOND
     1    51    50   ar
     2    50    52   ar
     3    50    49    1
     4    66    64    1
     5    49    46    1
     6    40    39    2
     7    46    47    1
     8    46    45    1
     9    60    61    1
    10    47    48    2
    11    39    45   am
    12    39    38    1
    13    54    53    1
    14    54    55    1
    15    54    57    1
    16    61    64    1
    17    61    62    1
    18    64    65    1
    19    41    38    1
    20    41    42    1
    21    59    57    1
    22    55    56    2
    23    65    67    1
    24    57    58    1
    25    44    42   ar
    26    38    37    1
    27    42    43   ar
    28    62    63    2
    29    62    68   am
    30   108   107    2
    31    37    34   am
    32    68    69    1
    33    35    34    2
    34   107   106    1
    35    34    33    1
    36    90    88    1
    37   105   106    1
    38    69    70    1
    39    84    85    1
    40   106   109    1
    41    36    33    1
    42   111   109    1
    43   109   110    1
    44    33    32    1
    45    88    85    1
    46    88    89    1
    47    71    70    2
    48    70    72   am
    49    85    86    1
    50    23    22    2
    51    15    14    2
    52   101   100    2
    53    32    30   am
    54    87    86    2
    55   110   112    1
    56    72    73    1
    57   100    99    1
    58    86    91   am
    59    31    30    2
    60    22    21    1
    61    30    29    1
    62    20    21    1
    63    14    13    1
    64    24    21    1
    65    24    25    1
    66    12    13    1
    67    27    25   ar
    68    73    74    1
    69    91    97    1
    70    91    92    1
    71    25    26   ar
    72    99    98    1
    73    99   102    1
    74    28    29    1
    75    13    16    1
    76    98    93   am
    77    97    96    1
    78    16    17    1
    79    93    92    1
    80    93    94    2
    81    75    74    2
    82    74    76   am
    83    92    95    1
    84   102   104    1
    85   102   103    1
    86    96    95    1
    87    18    17    1
    88    17    19    1
    89    76    77    1
    90    79    78    2
    91    77    78    1
    92    77    80    1
    93    82    80    1
    94    80    81    1
    95    81    83    1
    96     4     3    2
    97     3     2    1
    98     6     5    1
    99     6     7    1
   100     5     2    1
   101     7     8    1
   102     2     1    1
   103    10     9    1
   104     8     9    2
   105     9    11    1
