@<TRIPOS>MOLECULE
tmp/9icaC00.pdb
 77 71 0 0 0
SMALL
GASTEIGER

@<TRIPOS>ATOM
      1  N         75.3150   32.5770   62.3050 N.3   141  ARG141     -0.1245
      2  CA        75.9320   33.1300   61.1100 C.3   141  ARG141      0.1563
      3  C         77.0840   32.2370   60.6140 C.2   141  ARG141      0.2260
      4  O         77.6470   31.4800   61.4070 O.2   141  ARG141     -0.2867
      5  CB        76.3980   34.5440   61.4140 C.3   141  ARG141      0.0307
      6  CG        75.2300   35.4990   61.6020 C.3   141  ARG141      0.0489
      7  CD        74.5050   35.8060   60.2880 C.3   141  ARG141      0.2205
      8  NE        75.4150   36.1620   59.1970 N.pl3 141  ARG141     -0.0865
      9  CZ        75.0290   36.7200   58.0520 C.cat 141  ARG141      0.5346
     10  NH1       73.7470   36.9980   57.8270 N.pl3 141  ARG141      0.1354
     11  NH2       75.9490   37.0080   57.1160 N.pl3 141  ARG141      0.1354
     12  N         83.2780   29.2730   55.4270 N.3   147  MET147     -0.1245
     13  CA        82.7590   29.5020   54.0780 C.3   147  MET147      0.1570
     14  C         83.7640   29.1040   53.0290 C.2   147  MET147      0.2261
     15  O         83.4210   28.5870   51.9490 O.2   147  MET147     -0.2867
     16  CB        82.3500   30.9580   53.9040 C.3   147  MET147      0.0387
     17  CG        81.0380   31.2090   54.6040 C.3   147  MET147      0.0595
     18  SD        79.6550   30.4170   53.7410 S.3   147  MET147     -0.1393
     19  CE        78.8850   31.8440   52.9400 C.3   147  MET147      0.0692
     20  N         76.5950   35.4940   46.5390 N.3   171  GLY171     -0.1210
     21  CA        76.2280   36.2040   47.7590 C.3   171  GLY171      0.1956
     22  C         77.3040   37.0970   48.3820 C.2   171  GLY171      0.2612
     23  O         78.2420   37.5500   47.7100 O.2   171  GLY171     -0.2717
     24  N         77.1070   37.3290   49.7000 N.am  172  SER172     -0.1952
     25  CA        77.9510   38.1510   50.5760 C.3   172  SER172      0.1924
     26  C         79.3460   37.6070   50.6570 C.2   172  SER172      0.2314
     27  O         80.3320   38.3150   50.7720 O.2   172  SER172     -0.2863
     28  CB        77.3280   38.5160   51.9410 C.3   172  SER172      0.2116
     29  OG        76.2280   37.6680   52.2750 O.3   172  SER172     -0.2180
     30  N         81.1140   38.6570   47.7740 N.3   175  ARG175     -0.1245
     31  CA        81.4080   40.0590   48.0120 C.3   175  ARG175      0.1563
     32  C         82.3610   40.3060   49.1840 C.2   175  ARG175      0.2260
     33  O         82.1590   41.3000   49.8350 O.2   175  ARG175     -0.2867
     34  CB        80.1490   40.8030   48.3760 C.3   175  ARG175      0.0307
     35  CG        79.2640   41.0990   47.2020 C.3   175  ARG175      0.0489
     36  CD        78.0140   41.7380   47.7200 C.3   175  ARG175      0.2205
     37  NE        77.4190   40.9320   48.7750 N.pl3 175  ARG175     -0.0865
     38  CZ        76.3600   41.3430   49.4660 C.cat 175  ARG175      0.5346
     39  NH1       75.8200   42.5190   49.1960 N.pl3 175  ARG175      0.1354
     40  NH2       75.8170   40.5870   50.4360 N.pl3 175  ARG175      0.1354
     41  N         78.3260   35.0160   56.6350 N.3   180  SER180     -0.1202
     42  CA        77.2590   34.8840   55.6750 C.3   180  SER180      0.2020
     43  C         76.2780   34.0210   56.3570 C.2   180  SER180      0.2619
     44  O         76.7000   33.3200   57.2880 O.2   180  SER180     -0.2717
     45  CB        77.7250   34.2710   54.3770 C.3   180  SER180      0.2103
     46  OG        79.0220   34.7640   54.0610 O.3   180  SER180     -0.2182
     47  N         75.0120   34.0870   55.9090 N.am  181  GLY181     -0.1942
     48  CA        73.8260   33.3490   56.4310 C.3   181  GLY181      0.2014
     49  C         73.5530   31.8900   55.9910 C.2   181  GLY181      0.2638
     50  O         73.0800   31.0800   56.7870 O.2   181  GLY181     -0.2714
     51  N         73.8360   31.5650   54.7320 N.am  182  ASP182     -0.1971
     52  CA        73.6710   30.2510   54.1520 C.3   182  ASP182      0.1709
     53  C         74.3970   30.1980   52.8380 C.2   182  ASP182      0.2293
     54  O         74.5480   31.1900   52.1680 O.2   182  ASP182     -0.2864
     55  CB        72.2260   29.8090   53.9780 C.3   182  ASP182      0.1436
     56  CG        71.4140   30.7740   53.1820 C.2   182  ASP182      0.3671
     57  OD1       71.8830   31.7830   52.7040 O.co2 182  ASP182     -0.2456
     58  OD2       70.1410   30.4110   53.1030 O.co2 182  ASP182     -0.2456
     59  N         75.1180   29.5960   48.8490 N.3   184  ASP184     -0.1239
     60  CA        74.4110   29.6140   47.5600 C.3   184  ASP184      0.1674
     61  C         75.3270   29.3010   46.4250 C.2   184  ASP184      0.2266
     62  O         76.0750   30.1680   45.9760 O.2   184  ASP184     -0.2867
     63  CB        73.9770   31.0160   47.1120 C.3   184  ASP184      0.1410
     64  CG        72.6360   31.4980   47.5350 C.2   184  ASP184      0.3668
     65  OD1       71.6280   31.2900   46.8850 O.co2 184  ASP184     -0.2456
     66  OD2       72.6910   32.2290   48.6280 O.co2 184  ASP184     -0.2456
     67  N         72.8760   37.7110   41.6690 N.3   264  PHE264     -0.1241
     68  CA        72.8910   37.1360   42.9980 C.3   264  PHE264      0.1605
     69  C         73.9240   37.7350   43.8740 C.2   264  PHE264      0.2264
     70  O         73.6550   37.8620   45.0740 O.2   264  PHE264     -0.2867
     71  CB        73.0210   35.6150   43.0410 C.3   264  PHE264      0.0534
     72  CG        71.6720   34.9830   42.8920 C.ar  264  PHE264     -0.0203
     73  CD1       70.6940   35.1640   43.8750 C.ar  264  PHE264     -0.0042
     74  CD2       71.3680   34.2150   41.7690 C.ar  264  PHE264     -0.0042
     75  CE1       69.4340   34.5830   43.7290 C.ar  264  PHE264     -0.0003
     76  CE2       70.1130   33.6230   41.6090 C.ar  264  PHE264     -0.0003
     77  CZ        69.1440   33.8170   42.5960 C.ar  264  PHE264     -0.0000
@<TRIPOS>BOND
     1    76    74   ar
     2    76    77   ar
     3    67    68    1
     4    74    72   ar
     5    77    75   ar
     6    72    71    1
     7    72    73   ar
     8    68    71    1
     9    68    69    1
    10    75    73   ar
    11    69    70    2
    12    62    61    2
    13    61    60    1
    14    20    21    1
    15    65    64   ar
    16    63    64    1
    17    63    60    1
    18    35    36    1
    19    35    34    1
    20    64    66   ar
    21    60    59    1
    22    23    22    2
    23    36    37    1
    24    21    22    1
    25    30    31    1
    26    31    34    1
    27    31    32    1
    28    22    24   am
    29    37    38    2
    30    32    33    2
    31    39    38    1
    32    38    40    1
    33    24    25    1
    34    25    26    1
    35    25    28    1
    36    26    27    2
    37    28    29    1
    38    15    14    2
    39    54    53    2
    40    57    56   ar
    41    53    52    1
    42    19    18    1
    43    14    13    1
    44    58    56   ar
    45    56    55    1
    46    18    17    1
    47    16    13    1
    48    16    17    1
    49    55    52    1
    50    46    45    1
    51    13    12    1
    52    52    51    1
    53    45    42    1
    54    51    49   am
    55    42    43    1
    56    42    41    1
    57    47    43   am
    58    47    48    1
    59    49    48    1
    60    49    50    2
    61    43    44    2
    62    11     9    1
    63    10     9    1
    64     9     8    2
    65     8     7    1
    66     7     6    1
    67     3     2    1
    68     3     4    2
    69     2     5    1
    70     2     1    1
    71     5     6    1
