@<TRIPOS>MOLECULE
tmp/9icdA00.pdb
 127 124 0 0 0
SMALL
GASTEIGER

@<TRIPOS>ATOM
      1  N         99.3290   62.4690   -1.7760 N.3    35  ILE35      -0.1245
      2  CA       100.3100   63.2260   -0.9980 C.3    35  ILE35       0.1561
      3  C        100.3210   62.8250    0.4840 C.2    35  ILE35       0.2260
      4  O        101.1620   63.3450    1.2110 O.2    35  ILE35      -0.2867
      5  CB       100.0530   64.7700   -1.0730 C.3    35  ILE35       0.0252
      6  CG1       98.5750   65.1690   -0.7580 C.3    35  ILE35       0.0019
      7  CG2      100.6060   65.1880   -2.4360 C.3    35  ILE35       0.0019
      8  CD1       98.2090   66.6880   -0.6820 C.3    35  ILE35       0.0001
      9  N        102.9130   64.0570    3.4650 N.3    39  VAL39      -0.1245
     10  CA       102.5200   64.8570    4.6150 C.3    39  VAL39       0.1561
     11  C        102.5720   64.0880    5.9420 C.2    39  VAL39       0.2260
     12  O        103.0970   64.6270    6.9270 O.2    39  VAL39      -0.2867
     13  CB       101.0520   65.5350    4.4100 C.3    39  VAL39       0.0252
     14  CG1      101.2320   66.4870    3.2360 C.3    39  VAL39       0.0019
     15  CG2       99.8650   64.5540    4.2260 C.3    39  VAL39       0.0019
     16  N         94.1060   77.2000    2.3900 N.3   318  ILE318     -0.1231
     17  CA        93.5970   75.9330    1.8440 C.3   318  ILE318      0.1692
     18  C         94.4940   74.7100    2.1700 C.2   318  ILE318      0.2592
     19  O         94.0080   73.5850    2.2650 O.2   318  ILE318     -0.2718
     20  CB        93.3660   76.0240    0.2660 C.3   318  ILE318      0.0266
     21  CG1       94.4790   76.7330   -0.4870 C.3   318  ILE318      0.0019
     22  CG2       92.1030   76.8320    0.0150 C.3   318  ILE318      0.0020
     23  CD1       94.2660   76.7560   -2.0160 C.3   318  ILE318      0.0001
     24  N         95.7840   74.8620    2.5250 N.am  319  GLY319     -0.1957
     25  CA        96.6960   73.7360    2.7620 C.3   319  GLY319      0.1869
     26  C         97.1720   73.6770    4.2130 C.2   319  GLY319      0.2309
     27  O         98.0060   72.8330    4.5930 O.2   319  GLY319     -0.2863
     28  N         92.5350   68.7120    3.0360 N.3   337  HIS337     -0.1226
     29  CA        92.6640   68.7400    1.5990 C.3   337  HIS337      0.1752
     30  C         92.5280   67.3400    0.9760 C.2   337  HIS337      0.2597
     31  O         92.3610   66.3090    1.6620 O.2   337  HIS337     -0.2718
     32  CB        94.0110   69.3420    1.2460 C.3   337  HIS337      0.0759
     33  CG        95.1540   68.5720    1.8720 C.ar  337  HIS337      0.0818
     34  ND1       95.6310   67.4070    1.4850 N.ar  337  HIS337     -0.2268
     35  CD2       95.8290   68.9150    3.0110 C.ar  337  HIS337      0.1154
     36  CE1       96.5500   67.0060    2.3260 C.ar  337  HIS337      0.1986
     37  NE2       96.6620   67.9140    3.2410 N.ar  337  HIS337     -0.2212
     38  N         92.6170   67.3020   -0.3670 N.am  338  GLY338     -0.1942
     39  CA        92.5020   66.0560   -1.1180 C.3   338  GLY338      0.2014
     40  C         93.8050   65.3490   -1.3580 C.2   338  GLY338      0.2640
     41  O         94.8490   65.7860   -0.8970 O.2   338  GLY338     -0.2714
     42  N         93.8340   64.2660   -2.1220 N.am  339  THR339     -0.1936
     43  CA        95.0620   63.5130   -2.3000 C.3   339  THR339      0.2028
     44  C         96.0650   64.0560   -3.2850 C.2   339  THR339      0.2642
     45  O         97.1680   63.5480   -3.3380 O.2   339  THR339     -0.2714
     46  CB        94.6830   62.0980   -2.6610 C.3   339  THR339      0.1808
     47  OG1       94.0950   62.1850   -3.9530 O.3   339  THR339     -0.2208
     48  CG2       93.7040   61.4530   -1.6610 C.3   339  THR339      0.0379
     49  N         95.7220   65.0930   -4.0470 N.am  340  ALA340     -0.1963
     50  CA        96.5930   65.7170   -5.0540 C.3   340  ALA340      0.1713
     51  C         97.6190   64.8350   -5.7750 C.2   340  ALA340      0.2458
     52  O         98.8290   65.0210   -5.5860 O.2   340  ALA340     -0.2730
     53  CB        97.3590   66.8940   -4.4400 C.3   340  ALA340      0.0333
     54  N         97.1600   63.8590   -6.6050 N.am  341  PRO341     -0.2716
     55  CA        97.9550   62.7610   -7.1420 C.3   341  PRO341      0.1536
     56  C         99.1170   63.2110   -8.0000 C.2   341  PRO341      0.2598
     57  O        100.1170   62.5180   -8.0740 O.2   341  PRO341     -0.2715
     58  CB        96.9760   61.9080   -7.9060 C.3   341  PRO341      0.0310
     59  CG        95.6490   62.2640   -7.3550 C.3   341  PRO341      0.0237
     60  CD        95.7890   63.7410   -7.0920 C.3   341  PRO341      0.0939
     61  N         99.0010   64.3720   -8.6290 N.am  342  LYS342     -0.1964
     62  CA       100.0490   64.9860   -9.4310 C.3   342  LYS342      0.1728
     63  C        101.3360   65.1930   -8.6720 C.2   342  LYS342      0.2616
     64  O        102.4140   64.8890   -9.1700 O.2   342  LYS342     -0.2715
     65  CB        99.6170   66.3490   -9.9180 C.3   342  LYS342      0.0311
     66  CG       100.5920   67.0320  -10.8660 C.3   342  LYS342      0.0038
     67  CD       100.1180   68.4520  -11.1770 C.3   342  LYS342      0.0206
     68  CE       100.9370   69.1230  -12.2540 C.3   342  LYS342      0.1093
     69  NZ       102.3420   69.3360  -11.8870 N.3   342  LYS342     -0.1314
     70  N        101.2080   65.6980   -7.4310 N.am  343  TYR343     -0.1974
     71  CA       102.3630   66.0080   -6.6160 C.3   343  TYR343      0.1639
     72  C        102.8170   64.8290   -5.7900 C.2   343  TYR343      0.2290
     73  O        103.9280   64.8250   -5.2860 O.2   343  TYR343     -0.2864
     74  CB       102.0250   67.1430   -5.7220 C.3   343  TYR343      0.0560
     75  CG       101.6090   68.3900   -6.4570 C.ar  343  TYR343     -0.0198
     76  CD1      100.3880   68.9660   -6.1860 C.ar  343  TYR343     -0.0009
     77  CD2      102.4580   68.9890   -7.3620 C.ar  343  TYR343     -0.0009
     78  CE1      100.0050   70.1440   -6.8010 C.ar  343  TYR343      0.0417
     79  CE2      102.0850   70.1780   -7.9800 C.ar  343  TYR343      0.0417
     80  CZ       100.8620   70.7520   -7.6930 C.ar  343  TYR343      0.1957
     81  OH       100.5220   71.9620   -8.2660 O.3   343  TYR343     -0.2866
     82  N        104.2010   69.3270   -1.3000 N.3   349  VAL349     -0.1231
     83  CA       103.0220   69.9610   -0.7160 C.3   349  VAL349      0.1692
     84  C        103.1880   70.3780    0.7560 C.2   349  VAL349      0.2592
     85  O        104.0980   69.9340    1.4860 O.2   349  VAL349     -0.2718
     86  CB       101.7930   69.0050   -0.8760 C.3   349  VAL349      0.0266
     87  CG1      101.4570   68.9590   -2.3560 C.3   349  VAL349      0.0020
     88  CG2      102.0610   67.6110   -0.3160 C.3   349  VAL349      0.0020
     89  N        102.3140   71.3150    1.1390 N.am  350  ASN350     -0.1974
     90  CA       102.2330   71.8240    2.4920 C.3   350  ASN350      0.1688
     91  C        101.7650   70.7580    3.4990 C.2   350  ASN350      0.2292
     92  O        100.5930   70.3310    3.4750 O.2   350  ASN350     -0.2864
     93  CB       101.2820   73.0110    2.4670 C.3   350  ASN350      0.1181
     94  CG       101.4380   73.9040    3.6680 C.2   350  ASN350      0.2629
     95  OD1      101.8730   73.4500    4.7370 O.2   350  ASN350     -0.2716
     96  ND2      101.1000   75.1920    3.5760 N.am  350  ASN350     -0.0877
     97  N        105.9810   75.4950   -1.5080 N.3   389  TYR389     -0.1227
     98  CA       105.6360   76.1150   -2.8100 C.3   389  TYR389      0.1736
     99  C        104.3300   76.8950   -2.8960 C.2   389  TYR389      0.2595
    100  O        104.2690   77.9590   -3.4940 O.2   389  TYR389     -0.2718
    101  CB       105.6060   75.0530   -3.9640 C.3   389  TYR389      0.0548
    102  CG       104.2720   74.3170   -4.1410 C.ar  389  TYR389     -0.0200
    103  CD1      103.3760   74.7180   -5.1280 C.ar  389  TYR389     -0.0009
    104  CD2      103.9080   73.3290   -3.2510 C.ar  389  TYR389     -0.0009
    105  CE1      102.1190   74.1620   -5.2230 C.ar  389  TYR389      0.0417
    106  CE2      102.6510   72.7660   -3.3430 C.ar  389  TYR389      0.0417
    107  CZ       101.7630   73.1880   -4.3230 C.ar  389  TYR389      0.1957
    108  OH       100.4890   72.6500   -4.3620 O.3   389  TYR389     -0.2866
    109  N        103.2440   76.3960   -2.3280 N.am  390  ASP390     -0.1974
    110  CA       101.9620   77.0840   -2.2980 C.3   390  ASP390      0.1709
    111  C        101.9440   78.4420   -1.6120 C.2   390  ASP390      0.2293
    112  O        101.0560   79.2490   -1.8840 O.2   390  ASP390     -0.2864
    113  CB       100.9250   76.1720   -1.6100 C.3   390  ASP390      0.1436
    114  CG       101.2620   75.7040   -0.1860 C.2   390  ASP390      0.3671
    115  OD1      102.2860   75.0430    0.0140 O.co2 390  ASP390     -0.2456
    116  OD2      100.4880   75.9850    0.7190 O.co2 390  ASP390     -0.2456
    117  N        105.0310   80.9280   -3.9470 N.3   393  ARG393     -0.1245
    118  CA       104.5320   81.5540   -5.1680 C.3   393  ARG393      0.1563
    119  C        103.9340   82.9290   -4.9010 C.2   393  ARG393      0.2260
    120  O        104.0580   83.8490   -5.7040 O.2   393  ARG393     -0.2867
    121  CB       103.3680   80.8870   -5.8090 C.3   393  ARG393      0.0307
    122  CG       103.3550   79.4730   -6.2060 C.3   393  ARG393      0.0489
    123  CD       101.8850   79.1440   -6.0270 C.3   393  ARG393      0.2205
    124  NE       101.5190   78.1070   -6.9650 N.pl3 393  ARG393     -0.0865
    125  CZ       100.5580   77.2100   -6.7210 C.cat 393  ARG393      0.5346
    126  NH1      100.2660   76.3200   -7.6700 N.pl3 393  ARG393      0.1354
    127  NH2       99.9020   77.1780   -5.5680 N.pl3 393  ARG393      0.1354
@<TRIPOS>BOND
     1    68    69    1
     2    68    67    1
     3    67    66    1
     4    66    65    1
     5    65    62    1
     6    62    63    1
     7    62    61    1
     8    64    63    2
     9    63    70   am
    10    61    56   am
    11    81    80    1
    12    57    56    2
    13    56    55    1
    14    79    80   ar
    15    79    77   ar
    16    58    59    1
    17    58    55    1
    18    80    78   ar
    19   126   125    1
    20    70    71    1
    21    77    75   ar
    22    59    60    1
    23    55    54    1
    24    60    54    1
    25   124   125    2
    26   124   123    1
    27    78    76   ar
    28   125   127    1
    29    71    72    1
    30    71    74    1
    31    54    51   am
    32    75    76   ar
    33    75    74    1
    34   122   123    1
    35   122   121    1
    36   121   118    1
    37    72    73    2
    38    51    52    2
    39    51    50    1
    40   120   119    2
    41   105   103   ar
    42   105   107   ar
    43   118   119    1
    44   118   117    1
    45   103   102   ar
    46    50    53    1
    47    50    49    1
    48   108   107    1
    49   107   106   ar
    50   102   101    1
    51   102   104   ar
    52    49    44   am
    53   101    98    1
    54    47    46    1
    55   100    99    2
    56   106   104   ar
    57    45    44    2
    58    44    43    1
    59    99    98    1
    60    99   109   am
    61    98    97    1
    62    46    43    1
    63    46    48    1
    64     7     5    1
    65    87    86    1
    66   109   110    1
    67    43    42    1
    68   110   111    1
    69   110   113    1
    70    42    40   am
    71    23    21    1
    72   112   111    2
    73     1     2    1
    74   113   114    1
    75    40    39    1
    76    40    41    2
    77    82    83    1
    78    39    38    1
    79     5     2    1
    80     5     6    1
    81     2     3    1
    82    86    83    1
    83    86    88    1
    84     6     8    1
    85    83    84    1
    86    21    20    1
    87    38    30   am
    88   114   115   ar
    89   114   116   ar
    90    22    20    1
    91    20    17    1
    92     3     4    2
    93    84    89   am
    94    84    85    2
    95    30    29    1
    96    30    31    2
    97    89    90    1
    98    32    29    1
    99    32    33    1
   100    34    33   ar
   101    34    36   ar
   102    29    28    1
   103    17    18    1
   104    17    16    1
   105    33    35   ar
   106    18    19    2
   107    18    24   am
   108    36    37   ar
   109    93    90    1
   110    93    94    1
   111    90    91    1
   112    24    25    1
   113    25    26    1
   114    35    37   ar
   115    14    13    1
   116     9    10    1
   117    92    91    2
   118    96    94   am
   119    94    95    2
   120    26    27    2
   121    15    13    1
   122    13    10    1
   123    10    11    1
   124    11    12    2
