@<TRIPOS>MOLECULE
tmp/9icrC00.pdb
 130 124 0 0 0
SMALL
GASTEIGER

@<TRIPOS>ATOM
      1  N         75.1610   32.5300   62.3490 N.3   141  ARG141     -0.1245
      2  CA        75.7460   33.0090   61.1110 C.3   141  ARG141      0.1563
      3  C         76.9130   32.0940   60.6650 C.2   141  ARG141      0.2260
      4  O         77.4010   31.2350   61.4440 O.2   141  ARG141     -0.2867
      5  CB        76.1630   34.4630   61.1940 C.3   141  ARG141      0.0307
      6  CG        75.0160   35.4340   61.5190 C.3   141  ARG141      0.0489
      7  CD        74.2260   35.9950   60.3170 C.3   141  ARG141      0.2205
      8  NE        75.0850   36.3920   59.1820 N.pl3 141  ARG141     -0.0865
      9  CZ        74.7050   37.0700   58.0760 C.cat 141  ARG141      0.5346
     10  NH1       73.4340   37.4960   57.8780 N.pl3 141  ARG141      0.1354
     11  NH2       75.6420   37.3300   57.1450 N.pl3 141  ARG141      0.1354
     12  N         76.5800   35.3570   46.5580 N.3   171  GLY171     -0.1210
     13  CA        76.2130   35.8290   47.8550 C.3   171  GLY171      0.1956
     14  C         77.2520   36.8190   48.3580 C.2   171  GLY171      0.2613
     15  O         78.1070   37.2960   47.6450 O.2   171  GLY171     -0.2717
     16  N         77.1530   37.1420   49.6190 N.am  172  SER172     -0.1938
     17  CA        78.0360   38.0750   50.2800 C.3   172  SER172      0.2055
     18  C         79.3950   37.4480   50.4310 C.2   172  SER172      0.2643
     19  O         80.3980   38.1640   50.5670 O.2   172  SER172     -0.2714
     20  CB        77.4510   38.4810   51.6140 C.3   172  SER172      0.2130
     21  OG        76.8230   37.3460   52.1870 O.3   172  SER172     -0.2179
     22  N         79.3880   36.0950   50.4180 N.am  173  PHE173     -0.1973
     23  CA        80.6150   35.3510   50.5420 C.3   173  PHE173      0.1639
     24  C         81.5960   35.8360   49.4890 C.2   173  PHE173      0.2290
     25  O         82.7980   36.0630   49.6990 O.2   173  PHE173     -0.2864
     26  CB        80.3340   33.9150   50.1910 C.3   173  PHE173      0.0560
     27  CG        81.6390   33.2730   49.9450 C.ar  173  PHE173     -0.0200
     28  CD1       82.6250   33.3620   50.9240 C.ar  173  PHE173     -0.0042
     29  CD2       81.9070   32.5910   48.7670 C.ar  173  PHE173     -0.0042
     30  CE1       83.8720   32.7720   50.7570 C.ar  173  PHE173     -0.0003
     31  CE2       83.1560   31.9990   48.5930 C.ar  173  PHE173     -0.0003
     32  CZ        84.1380   32.0820   49.5790 C.ar  173  PHE173     -0.0000
     33  N         80.9490   38.6920   47.7470 N.3   175  ARG175     -0.1245
     34  CA        81.1420   40.1500   47.9090 C.3   175  ARG175      0.1563
     35  C         82.1040   40.5560   49.0840 C.2   175  ARG175      0.2260
     36  O         82.0030   41.6680   49.5990 O.2   175  ARG175     -0.2867
     37  CB        79.8190   40.8490   48.1890 C.3   175  ARG175      0.0307
     38  CG        79.0400   41.3010   46.9780 C.3   175  ARG175      0.0489
     39  CD        77.9790   42.2350   47.4940 C.3   175  ARG175      0.2205
     40  NE        77.5550   41.8150   48.8390 N.pl3 175  ARG175     -0.0865
     41  CZ        76.2850   41.5580   49.2510 C.cat 175  ARG175      0.5346
     42  NH1       75.1910   41.6690   48.4600 N.pl3 175  ARG175      0.1354
     43  NH2       76.1020   41.1800   50.5290 N.pl3 175  ARG175      0.1354
     44  N         78.3900   34.6940   56.4980 N.3   180  SER180     -0.1202
     45  CA        77.1350   34.7250   55.7870 C.3   180  SER180      0.2020
     46  C         76.1660   33.8420   56.4770 C.2   180  SER180      0.2619
     47  O         76.5370   33.1260   57.4090 O.2   180  SER180     -0.2717
     48  CB        77.2420   34.3680   54.3230 C.3   180  SER180      0.2103
     49  OG        78.5720   34.5840   53.8870 O.3   180  SER180     -0.2182
     50  N         74.9320   33.9220   56.0090 N.am  181  GLY181     -0.1942
     51  CA        73.8230   33.1590   56.5560 C.3   181  GLY181      0.2014
     52  C         73.6240   31.7690   55.9660 C.2   181  GLY181      0.2638
     53  O         73.3380   30.8330   56.6810 O.2   181  GLY181     -0.2714
     54  N         73.7800   31.6500   54.6650 N.am  182  ASP182     -0.1971
     55  CA        73.5990   30.3980   54.0320 C.3   182  ASP182      0.1709
     56  C         74.4740   30.3400   52.8030 C.2   182  ASP182      0.2293
     57  O         74.9040   31.3800   52.3230 O.2   182  ASP182     -0.2864
     58  CB        72.1130   30.2970   53.7360 C.3   182  ASP182      0.1436
     59  CG        71.6650   31.4380   52.8990 C.2   182  ASP182      0.3671
     60  OD1       72.1240   31.5750   51.8340 O.co2 182  ASP182     -0.2456
     61  OD2       70.7520   32.2400   53.4010 O.co2 182  ASP182     -0.2456
     62  N         74.9930   29.8960   48.8080 N.3   184  ASP184     -0.1239
     63  CA        74.3160   29.7760   47.4850 C.3   184  ASP184      0.1674
     64  C         75.2900   29.5240   46.4190 C.2   184  ASP184      0.2266
     65  O         76.1830   30.3050   46.1950 O.2   184  ASP184     -0.2867
     66  CB        73.5370   30.9670   46.8870 C.3   184  ASP184      0.1410
     67  CG        72.5800   31.6360   47.8110 C.2   184  ASP184      0.3668
     68  OD1       71.6650   31.0630   48.3640 O.co2 184  ASP184     -0.2456
     69  OD2       72.8500   32.9020   47.9490 O.co2 184  ASP184     -0.2456
     70  N         71.7800   25.5620   42.3630 N.3   250  ARG250     -0.1245
     71  CA        70.9740   25.7520   41.1460 C.3   250  ARG250      0.1563
     72  C         71.6010   25.7310   39.7780 C.2   250  ARG250      0.2260
     73  O         72.5820   26.4070   39.4580 O.2   250  ARG250     -0.2867
     74  CB        69.9250   26.8330   41.1910 C.3   250  ARG250      0.0307
     75  CG        70.4850   28.2130   41.4130 C.3   250  ARG250      0.0489
     76  CD        70.4490   28.6800   42.8780 C.3   250  ARG250      0.2205
     77  NE        69.2110   29.4050   43.2450 N.pl3 250  ARG250     -0.0865
     78  CZ        69.1270   30.4080   44.1600 C.cat 250  ARG250      0.5346
     79  NH1       70.2090   30.8620   44.8590 N.pl3 250  ARG250      0.1354
     80  NH2       67.9180   30.9760   44.3730 N.pl3 250  ARG250      0.1354
     81  N         73.9780   38.8310   39.1580 N.3   263  TYR263     -0.1227
     82  CA        72.7800   39.0740   39.8760 C.3   263  TYR263      0.1736
     83  C         72.7710   38.5920   41.3230 C.2   263  TYR263      0.2595
     84  O         72.5150   39.3460   42.2510 O.2   263  TYR263     -0.2718
     85  CB        71.7380   38.2730   39.1690 C.3   263  TYR263      0.0548
     86  CG        70.5750   38.4970   39.9980 C.ar  263  TYR263     -0.0200
     87  CD1       70.0180   39.7710   39.9720 C.ar  263  TYR263     -0.0009
     88  CD2       70.0540   37.4900   40.7960 C.ar  263  TYR263     -0.0009
     89  CE1       68.8970   40.0450   40.7510 C.ar  263  TYR263      0.0417
     90  CE2       68.9400   37.7490   41.5650 C.ar  263  TYR263      0.0417
     91  CZ        68.3780   39.0230   41.5350 C.ar  263  TYR263      0.1957
     92  OH        67.2770   39.2840   42.2980 O.3   263  TYR263     -0.2866
     93  N         73.0410   37.3060   41.5130 N.am  264  PHE264     -0.1962
     94  CA        73.0770   36.7320   42.8530 C.3   264  PHE264      0.1771
     95  C         74.0780   37.3840   43.7500 C.2   264  PHE264      0.2620
     96  O         73.8540   37.4960   44.9500 O.2   264  PHE264     -0.2715
     97  CB        73.1830   35.2230   42.9120 C.3   264  PHE264      0.0574
     98  CG        71.7930   34.7320   42.7590 C.ar  264  PHE264     -0.0200
     99  CD1       70.8960   34.8680   43.8150 C.ar  264  PHE264     -0.0042
    100  CD2       71.3460   34.1570   41.5720 C.ar  264  PHE264     -0.0042
    101  CE1       69.5820   34.4200   43.6770 C.ar  264  PHE264     -0.0003
    102  CE2       70.0360   33.7060   41.4200 C.ar  264  PHE264     -0.0003
    103  CZ        69.1490   33.8390   42.4830 C.ar  264  PHE264     -0.0000
    104  N         75.1880   37.8220   43.1850 N.am  265  THR265     -0.1937
    105  CA        76.1920   38.4790   43.9700 C.3   265  THR265      0.2028
    106  C         75.7740   39.8050   44.6160 C.2   265  THR265      0.2642
    107  O         76.5560   40.3330   45.4020 O.2   265  THR265     -0.2714
    108  CB        77.5430   38.5820   43.2450 C.3   265  THR265      0.1808
    109  OG1       77.8110   37.3290   42.6820 O.3   265  THR265     -0.2208
    110  CG2       78.6760   38.9400   44.2330 C.3   265  THR265      0.0379
    111  N         74.5800   40.3590   44.3110 N.am  266  GLY266     -0.1954
    112  CA        74.1480   41.6340   44.9090 C.3   266  GLY266      0.1869
    113  C         75.2490   42.7430   44.8730 C.2   266  GLY266      0.2309
    114  O         76.1790   42.7320   44.0420 O.2   266  GLY266     -0.2863
    115  N         71.7510   44.3540   46.5800 N.3   268  ASP268     -0.1239
    116  CA        70.5490   44.8700   45.9370 C.3   268  ASP268      0.1674
    117  C         70.8300   46.2140   45.2880 C.2   268  ASP268      0.2266
    118  O         70.5150   46.4420   44.1020 O.2   268  ASP268     -0.2867
    119  CB        69.4180   44.9380   46.9750 C.3   268  ASP268      0.1410
    120  CG        69.3480   43.6380   47.7290 C.2   268  ASP268      0.3668
    121  OD1       69.9130   42.6340   47.3420 O.co2 268  ASP268     -0.2456
    122  OD2       68.6640   43.7000   48.8450 O.co2 268  ASP268     -0.2456
    123  N         72.8660   46.2500   42.4280 N.3   271  ASN271     -0.1240
    124  CA        72.0200   45.7860   41.3580 C.3   271  ASN271      0.1653
    125  C         71.2710   46.8660   40.6390 C.2   271  ASN271      0.2266
    126  O         71.4030   47.0730   39.4190 O.2   271  ASN271     -0.2867
    127  CB        71.0770   44.6880   41.8190 C.3   271  ASN271      0.1155
    128  CG        71.7850   43.3390   41.7700 C.2   271  ASN271      0.2627
    129  OD1       71.6310   42.5100   42.6920 O.2   271  ASN271     -0.2716
    130  ND2       72.5780   43.1090   40.7100 N.am  271  ASN271     -0.0877
@<TRIPOS>BOND
     1    81    82    1
     2    85    82    1
     3    85    86    1
     4   126   125    2
     5    73    72    2
     6    72    71    1
     7    82    83    1
     8    87    86   ar
     9    87    89   ar
    10    86    88   ar
    11   125   124    1
    12   130   128   am
    13    89    91   ar
    14    88    90   ar
    15    71    74    1
    16    71    70    1
    17    74    75    1
    18    83    93   am
    19    83    84    2
    20   124   127    1
    21   124   123    1
    22    75    76    1
    23   102   100   ar
    24   102   103   ar
    25    93    94    1
    26    91    90   ar
    27    91    92    1
    28   100    98   ar
    29   128   127    1
    30   128   129    2
    31   103   101   ar
    32   109   108    1
    33    98    97    1
    34    98    99   ar
    35    94    97    1
    36    94    95    1
    37    76    77    1
    38   104    95   am
    39   104   105    1
    40    77    78    2
    41   108   105    1
    42   108   110    1
    43   101    99   ar
    44    95    96    2
    45   105   106    1
    46   114   113    2
    47   118   117    2
    48    78    80    1
    49    78    79    1
    50   111   106   am
    51   111   112    1
    52   106   107    2
    53   113   112    1
    54   117   116    1
    55   116   115    1
    56   116   119    1
    57    65    64    2
    58    64    63    1
    59    12    13    1
    60    66    63    1
    61    66    67    1
    62   119   120    1
    63    38    39    1
    64    38    37    1
    65   121   120   ar
    66    63    62    1
    67    39    40    1
    68    15    14    2
    69   120   122   ar
    70    33    34    1
    71    67    69   ar
    72    67    68   ar
    73    13    14    1
    74    34    37    1
    75    34    35    1
    76    14    16   am
    77    42    41    1
    78    31    29   ar
    79    31    32   ar
    80    29    27   ar
    81    40    41    2
    82    35    36    2
    83    41    43    1
    84    24    25    2
    85    24    23    1
    86    32    30   ar
    87    16    17    1
    88    27    26    1
    89    27    28   ar
    90    26    23    1
    91    17    18    1
    92    17    20    1
    93    22    18   am
    94    22    23    1
    95    18    19    2
    96    30    28   ar
    97    20    21    1
    98    60    59   ar
    99    57    56    2
   100    56    55    1
   101    59    61   ar
   102    59    58    1
   103    58    55    1
   104    49    48    1
   105    55    54    1
   106    48    45    1
   107    54    52   am
   108    45    46    1
   109    45    44    1
   110    52    51    1
   111    52    53    2
   112    50    46   am
   113    50    51    1
   114    46    47    2
   115    11     9    1
   116    10     9    1
   117     9     8    2
   118     8     7    1
   119     7     6    1
   120     3     2    1
   121     3     4    2
   122     2     5    1
   123     2     1    1
   124     5     6    1
