@<TRIPOS>MOLECULE
tmp/9jdwA00.pdb
 122 116 0 0 0
SMALL
GASTEIGER

@<TRIPOS>ATOM
      1  N         48.9820   79.2600    9.5270 N.3    35  ASN35      -0.1240
      2  CA        48.6880   78.6080   10.8090 C.3    35  ASN35       0.1653
      3  C         48.9920   79.4620   12.0520 C.2    35  ASN35       0.2266
      4  O         48.4990   79.2000   13.1460 O.2    35  ASN35      -0.2867
      5  CB        49.4780   77.3100   10.9360 C.3    35  ASN35       0.1155
      6  CG        49.2070   76.5910   12.2500 C.2    35  ASN35       0.2627
      7  OD1       48.0690   76.2470   12.5400 O.2    35  ASN35      -0.2716
      8  ND2       50.2510   76.3400   13.0390 N.am   35  ASN35      -0.0877
      9  N         48.9950   82.6200   14.6460 N.3    37  TYR37      -0.1241
     10  CA        48.1620   83.7080   15.1440 C.3    37  TYR37       0.1605
     11  C         48.9600   84.9970   15.0450 C.2    37  TYR37       0.2264
     12  O         50.1470   85.0130   15.3670 O.2    37  TYR37      -0.2867
     13  CB        47.8010   83.4790   16.6100 C.3    37  TYR37       0.0534
     14  CG        46.6300   82.5570   16.8300 C.ar   37  TYR37      -0.0201
     15  CD1       46.6920   81.2100   16.4630 C.ar   37  TYR37      -0.0009
     16  CD2       45.4470   83.0350   17.3910 C.ar   37  TYR37      -0.0009
     17  CE1       45.5920   80.3580   16.6450 C.ar   37  TYR37       0.0417
     18  CE2       44.3430   82.1960   17.5790 C.ar   37  TYR37       0.0417
     19  CZ        44.4190   80.8590   17.2010 C.ar   37  TYR37       0.1957
     20  OH        43.3150   80.0390   17.3520 O.3    37  TYR37      -0.2866
     21  N         40.9580   78.1770   10.4330 N.3   237  ASN237     -0.1240
     22  CA        42.3440   77.7140   10.3870 C.3   237  ASN237      0.1653
     23  C         42.4900   76.2430   10.8230 C.2   237  ASN237      0.2266
     24  O         43.1100   75.9210   11.8530 O.2   237  ASN237     -0.2867
     25  CB        43.2610   78.6010   11.2290 C.3   237  ASN237      0.1155
     26  CG        44.7050   78.1230   11.1940 C.2   237  ASN237      0.2627
     27  OD1       45.1770   77.6220   10.1670 O.2   237  ASN237     -0.2716
     28  ND2       45.3970   78.2260   12.3240 N.am  237  ASN237     -0.0877
     29  N         43.8930   72.5360   11.0830 N.3   239  MET239     -0.1230
     30  CA        45.1360   71.8290   10.9440 C.3   239  MET239      0.1702
     31  C         45.0220   70.7810   12.0310 C.2   239  MET239      0.2592
     32  O         45.2450   71.0670   13.2070 O.2   239  MET239     -0.2718
     33  CB        46.3580   72.7130   11.1540 C.3   239  MET239      0.0401
     34  CG        47.6490   71.9000   11.0520 C.3   239  MET239      0.0596
     35  SD        49.2090   72.7860   11.0650 S.3   239  MET239     -0.1393
     36  CE        49.7700   72.5670   12.6930 C.3   239  MET239      0.0692
     37  N         44.5920   69.5900   11.6310 N.am  240  HIS240     -0.1976
     38  CA        44.4130   68.4540   12.5230 C.3   240  HIS240      0.1656
     39  C         43.0130   68.4790   13.0940 C.2   240  HIS240      0.2291
     40  O         42.4250   69.5470   13.2700 O.2   240  HIS240     -0.2864
     41  CB        45.4960   68.4040   13.5930 C.3   240  HIS240      0.0771
     42  CG        46.8900   68.4190   13.0230 C.ar  240  HIS240      0.0820
     43  ND1       47.9820   68.8670   13.7340 N.ar  240  HIS240     -0.2267
     44  CD2       47.3470   68.0900   11.7940 C.ar  240  HIS240      0.1154
     45  CE1       49.0540   68.8170   12.9650 C.ar  240  HIS240      0.1986
     46  NE2       48.6970   68.3490   11.7840 N.ar  240  HIS240     -0.2212
     47  N         41.9870   66.3060   15.9390 N.3   242  ASP242     -0.1225
     48  CA        41.9210   65.8730   17.3320 C.3   242  ASP242      0.1805
     49  C         41.7010   66.8990   18.4290 C.2   242  ASP242      0.2597
     50  O         41.6640   66.5380   19.5940 O.2   242  ASP242     -0.2718
     51  CB        43.0540   64.8960   17.6770 C.3   242  ASP242      0.1424
     52  CG        44.4330   65.3880   17.2590 C.2   242  ASP242      0.3668
     53  OD1       44.5770   66.4050   16.5470 O.co2 242  ASP242     -0.2456
     54  OD2       45.4100   64.7360   17.6480 O.co2 242  ASP242     -0.2456
     55  N         41.5720   68.1730   18.0740 N.am  243  ALA243     -0.1979
     56  CA        41.2570   69.2130   19.0580 C.3   243  ALA243      0.1597
     57  C         39.9430   69.8600   18.5810 C.2   243  ALA243      0.2287
     58  O         39.6060   70.9930   18.9450 O.2   243  ALA243     -0.2864
     59  CB        42.3530   70.2430   19.1340 C.3   243  ALA243      0.0319
     60  N         33.8460   74.8970   17.1710 N.3   259  ARG259     -0.1245
     61  CA        33.9660   74.3420   15.8360 C.3   259  ARG259      0.1563
     62  C         32.9360   73.2570   15.5780 C.2   259  ARG259      0.2260
     63  O         33.2430   72.0700   15.5650 O.2   259  ARG259     -0.2867
     64  CB        35.3720   73.7920   15.6560 C.3   259  ARG259      0.0307
     65  CG        36.4510   74.8180   15.9190 C.3   259  ARG259      0.0489
     66  CD        37.7730   74.1280   16.1060 C.3   259  ARG259      0.2205
     67  NE        38.8290   75.0630   16.4750 N.pl3 259  ARG259     -0.0865
     68  CZ        40.0200   74.7080   16.9570 C.cat 259  ARG259      0.5346
     69  NH1       40.3220   73.4260   17.1430 N.pl3 259  ARG259      0.1354
     70  NH2       40.9310   75.6390   17.2170 N.pl3 259  ARG259      0.1354
     71  N         52.1040   77.1250   18.2880 N.3   290  MET290     -0.1230
     72  CA        51.5730   76.3290   17.1900 C.3   290  MET290      0.1702
     73  C         50.0890   75.9350   17.2170 C.2   290  MET290      0.2593
     74  O         49.6510   75.2120   16.3150 O.2   290  MET290     -0.2718
     75  CB        52.4000   75.0360   17.0810 C.3   290  MET290      0.0401
     76  CG        53.8770   75.1930   16.7490 C.3   290  MET290      0.0596
     77  SD        54.0900   75.0710   14.9810 S.3   290  MET290     -0.1393
     78  CE        53.2340   73.5030   14.5920 C.3   290  MET290      0.0692
     79  N         49.3130   76.3680   18.2130 N.am  291  SER291     -0.1938
     80  CA        47.9030   75.9590   18.2770 C.3   291  SER291      0.2055
     81  C         46.9840   76.9330   18.9920 C.2   291  SER291      0.2643
     82  O         47.3550   78.0700   19.2850 O.2   291  SER291     -0.2714
     83  CB        47.7990   74.6180   19.0040 C.3   291  SER291      0.2130
     84  OG        48.1740   74.7830   20.3710 O.3   291  SER291     -0.2179
     85  N         45.7680   76.4640   19.2460 N.am  292  SER292     -0.1949
     86  CA        44.7710   77.2240   19.9680 C.3   292  SER292      0.1924
     87  C         44.7870   76.7050   21.4000 C.2   292  SER292      0.2314
     88  O         45.4700   75.7290   21.7070 O.2   292  SER292     -0.2863
     89  CB        43.3850   76.9750   19.3820 C.3   292  SER292      0.2116
     90  OG        42.8450   75.7290   19.8150 O.3   292  SER292     -0.2180
     91  N         42.4720   75.1200   22.7460 N.3   294  TRP294     -0.1227
     92  CA        41.7390   73.8620   22.7910 C.3   294  TRP294      0.1737
     93  C         42.4740   72.5620   22.9670 C.2   294  TRP294      0.2595
     94  O         41.8710   71.4930   22.8950 O.2   294  TRP294     -0.2718
     95  CB        40.7560   73.7880   21.6410 C.3   294  TRP294      0.0564
     96  CG        39.5770   74.6550   21.9090 C.ar  294  TRP294      0.0003
     97  CD1       39.3030   75.8670   21.3510 C.ar  294  TRP294      0.0946
     98  CD2       38.5110   74.3810   22.8360 C.ar  294  TRP294      0.0152
     99  NE1       38.1270   76.3650   21.8710 N.ar  294  TRP294     -0.2442
    100  CE2       37.6240   75.4740   22.7820 C.ar  294  TRP294      0.0810
    101  CE3       38.2220   73.3150   23.7030 C.ar  294  TRP294      0.0012
    102  CZ2       36.4650   75.5320   23.5630 C.ar  294  TRP294      0.0191
    103  CZ3       37.0760   73.3760   24.4690 C.ar  294  TRP294      0.0001
    104  CH2       36.2100   74.4800   24.3930 C.ar  294  TRP294      0.0015
    105  N         43.7540   72.6490   23.3000 N.am  295  LEU295     -0.1980
    106  CA        44.5480   71.4640   23.5330 C.3   295  LEU295      0.1596
    107  C         43.9850   70.6670   24.7030 C.2   295  LEU295      0.2287
    108  O         44.2990   69.4810   24.8650 O.2   295  LEU295     -0.2864
    109  CB        45.9900   71.8570   23.8090 C.3   295  LEU295      0.0297
    110  CG        46.6660   72.5080   22.6140 C.3   295  LEU295      0.0022
    111  CD1       48.0910   72.8140   22.9920 C.3   295  LEU295      0.0001
    112  CD2       46.6080   71.5770   21.3940 C.3   295  LEU295      0.0001
    113  N         52.6880   72.9170   20.4400 N.3   339  GLY339     -0.1225
    114  CA        51.5360   72.6540   19.6020 C.3   339  GLY339      0.1811
    115  C         50.6490   71.4630   19.8550 C.2   339  GLY339      0.2280
    116  O         49.7250   71.2470   19.0810 O.2   339  GLY339     -0.2866
    117  N         48.2790   64.3940   20.4450 N.3   344  CYS344     -0.1235
    118  CA        49.2660   64.8360   19.4720 C.3   344  CYS344      0.1677
    119  C         50.6680   64.3560   19.8060 C.2   344  CYS344      0.2270
    120  O         51.4600   64.0940   18.9170 O.2   344  CYS344     -0.2867
    121  CB        49.2820   66.3660   19.3830 C.3   344  CYS344      0.0956
    122  SG        47.8160   67.1490   18.6720 S.3   344  CYS344     -0.0801
@<TRIPOS>BOND
     1     1     2    1
     2    27    26    2
     3    22    21    1
     4    22    23    1
     5    22    25    1
     6     2     5    1
     7     2     3    1
     8    23    24    2
     9     5     6    1
    10    30    29    1
    11    30    33    1
    12    30    31    1
    13    34    35    1
    14    34    33    1
    15    35    36    1
    16    26    25    1
    17    26    28   am
    18    37    31   am
    19    37    38    1
    20    46    44   ar
    21    46    45   ar
    22    44    42   ar
    23    31    32    2
    24     3     4    2
    25     6     7    2
    26     6     8   am
    27    38    39    1
    28    38    41    1
    29    45    43   ar
    30    42    41    1
    31    42    43   ar
    32    39    40    2
    33    78    77    1
    34     9    10    1
    35    77    76    1
    36    11    10    1
    37    11    12    2
    38    10    13    1
    39    63    62    2
    40    62    61    1
    41    64    61    1
    42    64    65    1
    43    61    60    1
    44    65    66    1
    45    47    48    1
    46    66    67    1
    47    74    73    2
    48    15    17   ar
    49    15    14   ar
    50    67    68    2
    51    53    52   ar
    52    13    14    1
    53    17    19   ar
    54    76    75    1
    55    14    16   ar
    56    68    69    1
    57    68    70    1
    58    75    72    1
    59    72    73    1
    60    72    71    1
    61    19    20    1
    62    19    18   ar
    63    73    79   am
    64    52    54   ar
    65    52    51    1
    66    48    51    1
    67    48    49    1
    68    16    18   ar
    69    55    49   am
    70    55    56    1
    71    79    80    1
    72    80    81    1
    73    80    83    1
    74    49    50    2
    75    57    58    2
    76    57    56    1
    77   122   121    1
    78   120   119    2
    79    81    85   am
    80    81    82    2
    81    83    84    1
    82    56    59    1
    83   116   115    2
    84    85    86    1
    85    89    90    1
    86    89    86    1
    87   121   118    1
    88   118   119    1
    89   118   117    1
    90   114   115    1
    91   114   113    1
    92    86    87    1
    93    97    99   ar
    94    97    96   ar
    95   112   110    1
    96    87    88    2
    97    95    96    1
    98    95    92    1
    99    99   100   ar
   100    96    98   ar
   101   110   111    1
   102   110   109    1
   103    91    92    1
   104   100    98   ar
   105   100   102   ar
   106    92    93    1
   107    98   101   ar
   108    94    93    2
   109    93   105   am
   110   105   106    1
   111   106   109    1
   112   106   107    1
   113   102   104   ar
   114   101   103   ar
   115   104   103   ar
   116   107   108    2
