@<TRIPOS>MOLECULE
tmp/9lprA00.pdb
 146 143 0 0 0
SMALL
GASTEIGER

@<TRIPOS>ATOM
      1  N         16.2970   27.1410   21.4970 N.3    36  HIS36      -0.1297
      2  CA        14.8890   27.3690   21.1750 C.3    36  HIS36       0.1306
      3  C         14.4400   26.4190   20.0650 C.3    36  HIS36       0.2013
      4  O         13.2020   26.5570   19.8770 O.3    36  HIS36      -0.2188
      5  CB        14.6090   28.8230   20.8590 C.3    36  HIS36       0.0691
      6  CG        15.0410   29.2750   19.5110 C.ar   36  HIS36       0.0814
      7  ND1       16.2330   29.9240   19.2710 N.ar   36  HIS36      -0.2268
      8  CD2       14.3580   29.1860   18.3170 C.ar   36  HIS36       0.1154
      9  CE1       16.2880   30.2900   17.9640 C.ar   36  HIS36       0.1986
     10  NE2       15.1760   29.8250   17.4090 N.ar   36  HIS36      -0.2212
     11  N         17.2090   27.2450   27.2500 N.3    59  PHE59      -0.1298
     12  CA        16.5220   28.3880   26.5690 C.3    59  PHE59       0.1290
     13  C         15.3070   28.7690   27.4270 C.3    59  PHE59       0.2013
     14  O         14.6240   27.8110   27.7560 O.3    59  PHE59      -0.2188
     15  CB        16.0810   28.0490   25.1320 C.3    59  PHE59       0.0480
     16  CG        15.3080   29.1830   24.5280 C.ar   59  PHE59      -0.0206
     17  CD1       15.9500   30.2940   23.9580 C.ar   59  PHE59      -0.0042
     18  CD2       13.8990   29.1400   24.5270 C.ar   59  PHE59      -0.0042
     19  CE1       15.2020   31.3400   23.3840 C.ar   59  PHE59      -0.0003
     20  CE2       13.1900   30.1870   23.9460 C.ar   59  PHE59      -0.0003
     21  CZ        13.8080   31.2780   23.3720 C.ar   59  PHE59      -0.0000
     22  N         18.8900   39.8240   24.3170 N.3   121  ALA121     -0.1231
     23  CA        17.7790   39.8850   23.3320 C.3   121  ALA121      0.1694
     24  C         16.5940   39.6720   24.3020 C.2   121  ALA121      0.2592
     25  O         16.7050   38.7760   25.1780 O.2   121  ALA121     -0.2718
     26  CB        17.8220   38.7060   22.3960 C.3   121  ALA121      0.0304
     27  N         15.5400   40.4100   24.1990 N.am  122  ASN122     -0.1960
     28  CA        14.3540   40.1920   25.0510 C.3   122  ASN122      0.1819
     29  C         13.3390   39.4080   24.2120 C.2   122  ASN122      0.2621
     30  O         12.5570   40.0880   23.4980 O.2   122  ASN122     -0.2715
     31  CB        13.8060   41.5300   25.5490 C.3   122  ASN122      0.1195
     32  CG        14.7910   41.9710   26.6460 C.2   122  ASN122      0.2630
     33  OD1       14.9520   41.2970   27.6860 O.2   122  ASN122     -0.2716
     34  ND2       15.4690   43.0730   26.3970 N.am  122  ASN122     -0.0877
     35  N         13.4060   38.0830   24.2620 N.am  123  TYR123     -0.1960
     36  CA        12.4400   37.3020   23.4580 C.3   123  TYR123      0.1771
     37  C         11.1320   37.2300   24.2620 C.2   123  TYR123      0.2619
     38  O         11.2370   37.4540   25.4980 O.2   123  TYR123     -0.2715
     39  CB        13.0580   35.9340   23.1630 C.3   123  TYR123      0.0574
     40  CG        14.2770   35.9050   22.2650 C.ar  123  TYR123     -0.0198
     41  CD1       14.4660   36.7650   21.1930 C.ar  123  TYR123     -0.0009
     42  CD2       15.2590   34.9640   22.5370 C.ar  123  TYR123     -0.0009
     43  CE1       15.5940   36.6990   20.3720 C.ar  123  TYR123      0.0417
     44  CE2       16.4030   34.8550   21.7210 C.ar  123  TYR123      0.0417
     45  CZ        16.5450   35.7250   20.6370 C.ar  123  TYR123      0.1957
     46  OH        17.6580   35.5850   19.8850 O.3   123  TYR123     -0.2866
     47  N         10.0280   36.8870   23.6160 N.am  124  ALA124     -0.1963
     48  CA         8.7340   36.7730   24.3350 C.3   124  ALA124      0.1728
     49  C          8.8570   35.7720   25.4970 C.2   124  ALA124      0.2616
     50  O          8.2430   35.9720   26.5750 O.2   124  ALA124     -0.2715
     51  CB         7.6810   36.2620   23.3450 C.3   124  ALA124      0.0334
     52  N          9.6390   34.6840   25.2710 N.am  125  GLU125     -0.1977
     53  CA         9.8090   33.6670   26.2880 C.3   125  GLU125      0.1602
     54  C         10.6290   34.0740   27.5150 C.2   125  GLU125      0.2287
     55  O         10.5180   33.3910   28.5470 O.2   125  GLU125     -0.2864
     56  CB        10.6220   32.4850   25.7570 C.3   125  GLU125      0.0415
     57  CG         9.9280   31.7770   24.6210 C.3   125  GLU125      0.1163
     58  CD        10.1170   32.4140   23.2750 C.2   125  GLU125      0.3649
     59  OE1       10.6120   33.5020   23.0390 O.co2 125  GLU125     -0.2457
     60  OE2        9.5950   31.5740   22.4840 O.co2 125  GLU125     -0.2457
     61  N         19.8140   37.3190    8.0160 N.3   138  MET138     -0.1230
     62  CA        19.2760   35.9830    8.3380 C.3   138  MET138      0.1702
     63  C         17.7550   35.9920    8.2690 C.2   138  MET138      0.2593
     64  O         17.2190   37.1000    8.2290 O.2   138  MET138     -0.2718
     65  CB        19.7000   35.4470    9.7070 C.3   138  MET138      0.0401
     66  CG        20.2260   36.5350   10.5650 C.3   138  MET138      0.0596
     67  SD        19.0700   37.4720   11.5430 S.3   138  MET138     -0.1393
     68  CE        17.7560   36.3170   11.6190 C.3   138  MET138      0.0692
     69  N         17.0720   34.8720    8.2750 N.am  139  GLY139     -0.1942
     70  CA        15.5940   34.8600    8.2110 C.3   139  GLY139      0.2014
     71  C         15.1460   33.6470    9.0380 C.2   139  GLY139      0.2639
     72  O         15.9230   32.7760    9.4850 O.2   139  GLY139     -0.2714
     73  N         13.8690   33.5600    9.2490 N.am  140  ARG140     -0.1963
     74  CA        13.1830   32.5330   10.0080 C.3   140  ARG140      0.1729
     75  C         13.5750   31.2040    9.3790 C.2   140  ARG140      0.2617
     76  O         13.3770   31.1140    8.1500 O.2   140  ARG140     -0.2715
     77  CB        11.6540   32.7360    9.8410 C.3   140  ARG140      0.0348
     78  CG        11.0650   33.8380   10.7090 C.3   140  ARG140      0.0492
     79  CD         9.5980   33.8570   10.2660 C.3   140  ARG140      0.2205
     80  NE         9.1650   35.1480   10.8110 N.pl3 140  ARG140     -0.0865
     81  CZ         8.3880   35.9190   10.0350 C.cat 140  ARG140      0.5346
     82  NH1        7.7300   35.4090    8.9880 N.pl3 140  ARG140      0.1354
     83  NH2        8.3120   37.2020   10.4240 N.pl3 140  ARG140      0.1354
     84  N         14.0680   30.3040   10.2200 N.am  141  GLY141     -0.1940
     85  CA        14.5050   28.9960    9.6140 C.3   141  GLY141      0.2014
     86  C         16.0420   28.9000    9.7910 C.2   141  GLY141      0.2639
     87  O         16.5780   27.7890    9.8770 O.2   141  GLY141     -0.2714
     88  N         16.7670   30.0050    9.8640 N.am  142  ASP142     -0.1957
     89  CA        18.2260   30.0480   10.0230 C.3   142  ASP142      0.1840
     90  C         18.7130   29.7110   11.4300 C.2   142  ASP142      0.2622
     91  O         19.9290   29.4460   11.5200 O.2   142  ASP142     -0.2715
     92  CB        18.7060   31.4810    9.5990 C.3   142  ASP142      0.1450
     93  CG        18.7340   31.5810    8.0670 C.2   142  ASP142      0.3671
     94  OD1       18.8140   30.5820    7.2840 O.co2 142  ASP142     -0.2456
     95  OD2       18.6630   32.7220    7.5790 O.co2 142  ASP142     -0.2456
     96  N         17.9080   29.8020   12.4570 N.am  143  SER143     -0.1950
     97  CA        18.2940   29.5350   13.8460 C.3   143  SER143      0.1924
     98  C         19.0590   28.2090   13.9820 C.2   143  SER143      0.2314
     99  O         18.6760   27.2440   13.3160 O.2   143  SER143     -0.2863
    100  CB        17.0740   29.2740   14.7560 C.3   143  SER143      0.2116
    101  OG        16.3410   30.5110   14.7410 O.3   143  SER143     -0.2180
    102  N         23.2460   30.5700   15.4420 N.3   158  MET158     -0.1230
    103  CA        22.1890   31.5510   15.2410 C.3   158  MET158      0.1702
    104  C         21.1140   31.4220   16.3270 C.2   158  MET158      0.2593
    105  O         20.5220   30.3420   16.5240 O.2   158  MET158     -0.2718
    106  CB        21.6260   31.4100   13.8390 C.3   158  MET158      0.0401
    107  CG        20.5660   32.4240   13.4630 C.3   158  MET158      0.0596
    108  SD        21.2800   33.9630   12.7090 S.3   158  MET158     -0.1393
    109  CE        20.8800   35.0830   14.0190 C.3   158  MET158      0.0692
    110  N         20.8590   32.5390   16.9840 N.am  159  SER159     -0.1938
    111  CA        19.8250   32.6700   17.9970 C.3   159  SER159      0.2055
    112  C         18.6310   33.4780   17.4300 C.2   159  SER159      0.2644
    113  O         17.5630   32.8550   17.3980 O.2   159  SER159     -0.2714
    114  CB        20.1870   33.4320   19.3080 C.3   159  SER159      0.2130
    115  OG        19.0340   33.3500   20.1950 O.3   159  SER159     -0.2179
    116  N         18.8170   34.7270   17.0660 N.am  160  GLY160     -0.1939
    117  CA        17.6320   35.4870   16.6300 C.3   160  GLY160      0.2014
    118  C         18.1040   36.8720   16.2000 C.2   160  GLY160      0.2639
    119  O         19.3210   37.0870   15.9950 O.2   160  GLY160     -0.2714
    120  N         17.1360   37.7950   16.0710 N.am  161  GLY161     -0.1939
    121  CA        17.3870   39.1640   15.6370 C.3   161  GLY161      0.2014
    122  C         16.1280   39.8800   15.1280 C.2   161  GLY161      0.2639
    123  O         15.0390   39.3550   15.3930 O.2   161  GLY161     -0.2714
    124  N         16.3530   41.0160   14.5080 N.am  162  ASN162     -0.1958
    125  CA        15.2530   41.8610   14.0370 C.3   162  ASN162      0.1819
    126  C         14.7860   41.6330   12.6170 C.2   162  ASN162      0.2621
    127  O         15.0170   42.3460   11.6440 O.2   162  ASN162     -0.2715
    128  CB        15.7770   43.2530   14.3200 C.3   162  ASN162      0.1195
    129  CG        16.9000   43.6950   13.3830 C.2   162  ASN162      0.2630
    130  OD1       17.7330   42.9540   12.8100 O.2   162  ASN162     -0.2716
    131  ND2       16.9110   45.0290   13.0970 N.am  162  ASN162     -0.0877
    132  N         14.0310   40.5670   12.4900 N.am  163  VAL163     -0.1977
    133  CA        13.3810   40.0930   11.2390 C.3   163  VAL163      0.1596
    134  C         12.3010   41.1100   10.9080 C.2   163  VAL163      0.2287
    135  O         11.6300   41.6210   11.8410 O.2   163  VAL163     -0.2864
    136  CB        12.8620   38.6560   11.4860 C.3   163  VAL163      0.0276
    137  CG1       12.1920   38.4130   12.8210 C.3   163  VAL163      0.0022
    138  CG2       11.7490   38.2510   10.5680 C.3   163  VAL163      0.0022
    139  N         21.8240   38.0680   16.2300 N.3   180  LEU180     -0.1245
    140  CA        22.5340   37.5280   17.3780 C.3   180  LEU180      0.1561
    141  C         22.8310   36.0330   17.3670 C.2   180  LEU180      0.2260
    142  O         21.9460   35.2310   16.9540 O.2   180  LEU180     -0.2867
    143  CB        21.5470   37.8030   18.5410 C.3   180  LEU180      0.0270
    144  CG        20.9540   39.2250   18.5600 C.3   180  LEU180      0.0019
    145  CD1       19.8980   39.4300   19.6610 C.3   180  LEU180      0.0001
    146  CD2       22.0630   40.2570   18.7070 C.3   180  LEU180      0.0001
@<TRIPOS>BOND
     1    94    93   ar
     2    95    93   ar
     3    61    62    1
     4    93    92    1
     5    76    75    2
     6    70    69    1
     7    70    71    1
     8    64    63    2
     9    63    69   am
    10    63    62    1
    11    62    65    1
    12    82    81    1
    13    71    73   am
    14    71    72    2
    15    73    74    1
    16    75    74    1
    17    75    84   am
    18    92    89    1
    19    85    86    1
    20    85    84    1
    21    65    66    1
    22    86    88   am
    23    86    87    2
    24    77    74    1
    25    77    78    1
    26    88    89    1
    27    89    90    1
    28    81    83    1
    29    81    80    2
    30    79    78    1
    31    79    80    1
    32    66    67    1
    33   138   136    1
    34   134   133    1
    35   134   135    2
    36   133   136    1
    37   133   132    1
    38    90    91    2
    39    90    96   am
    40   136   137    1
    41    67    68    1
    42   127   126    2
    43    96    97    1
    44   132   126   am
    45   126   125    1
    46   108   107    1
    47   108   109    1
    48   130   129    2
    49   131   129   am
    50    99    98    2
    51   129   128    1
    52   107   106    1
    53   106   103    1
    54    97    98    1
    55    97   100    1
    56   125   128    1
    57   125   124    1
    58   124   122   am
    59   101   100    1
    60   122   123    2
    61   122   121    1
    62   103   102    1
    63   103   104    1
    64   121   120    1
    65   119   118    2
    66   120   118   am
    67   118   117    1
    68   139   140    1
    69   104   105    2
    70   104   110   am
    71   117   116    1
    72   142   141    2
    73   110   111    1
    74   116   112   am
    75   141   140    1
    76   140   143    1
    77   113   112    2
    78    10     9   ar
    79    10     8   ar
    80   112   111    1
    81     9     7   ar
    82   111   114    1
    83     8     6   ar
    84   143   144    1
    85   144   146    1
    86   144   145    1
    87     7     6   ar
    88   114   115    1
    89     6     5    1
    90     4     3    1
    91    46    45    1
    92     3     2    1
    93    43    45   ar
    94    43    41   ar
    95    45    44   ar
    96     5     2    1
    97     2     1    1
    98    41    40   ar
    99    44    42   ar
   100    40    42   ar
   101    40    39    1
   102    26    23    1
   103    60    58   ar
   104    59    58   ar
   105    39    36    1
   106    58    57    1
   107    23    24    1
   108    23    22    1
   109    51    48    1
   110    21    19   ar
   111    21    20   ar
   112    19    17   ar
   113    36    37    1
   114    36    35    1
   115    30    29    2
   116    47    37   am
   117    47    48    1
   118    20    18   ar
   119    17    16   ar
   120    27    24   am
   121    27    28    1
   122    29    35   am
   123    29    28    1
   124    37    38    2
   125    24    25    2
   126    48    49    1
   127    18    16   ar
   128    16    15    1
   129    57    56    1
   130    28    31    1
   131    15    12    1
   132    52    49   am
   133    52    53    1
   134    49    50    2
   135    31    32    1
   136    56    53    1
   137    53    54    1
   138    34    32   am
   139    12    11    1
   140    12    13    1
   141    32    33    2
   142    13    14    1
   143    54    55    2
