@<TRIPOS>MOLECULE
tmp/9lyzA00.pdb
 160 155 0 0 0
SMALL
GASTEIGER

@<TRIPOS>ATOM
      1  N          4.2350   24.3710   13.8760 N.3    35  GLU35      -0.1245
      2  CA         4.7100   23.7250   15.1050 C.3    35  GLU35       0.1567
      3  C          5.4920   22.5220   14.5770 C.2    35  GLU35       0.2260
      4  O          6.6720   22.3110   14.9330 O.2    35  GLU35      -0.2867
      5  CB         3.5290   23.2920   16.0180 C.3    35  GLU35       0.0388
      6  CG         3.7810   23.3190   17.5390 C.3    35  GLU35       0.1160
      7  CD         4.6720   24.5150   18.0410 C.2    35  GLU35       0.3649
      8  OE1        5.8400   24.2690   17.7430 O.co2  35  GLU35      -0.2457
      9  OE2        4.2020   25.4530   18.6110 O.co2  35  GLU35      -0.2457
     10  N         15.0590   21.0780   23.4880 N.3    46  ASN46      -0.1225
     11  CA        15.1390   22.4580   23.9910 C.3    46  ASN46       0.1785
     12  C         16.4380   22.4030   24.7980 C.2    46  ASN46       0.2598
     13  O         16.9300   21.3100   25.1520 O.2    46  ASN46      -0.2718
     14  CB        13.8720   22.7850   24.8040 C.3    46  ASN46       0.1169
     15  CG        12.6220   22.5630   23.9930 C.2    46  ASN46       0.2627
     16  OD1       11.8110   21.5170   24.4160 O.2    46  ASN46      -0.2716
     17  ND2       12.3230   23.1860   22.9900 N.am   46  ASN46      -0.0877
     18  N         16.9550   23.5910   25.0710 N.am   47  THR47      -0.1939
     19  CA        18.0890   23.7810   25.9850 C.3    47  THR47       0.2028
     20  C         18.0330   23.1790   27.3890 C.2    47  THR47       0.2642
     21  O         19.0540   22.6980   27.9260 O.2    47  THR47      -0.2714
     22  CB        18.2950   25.3000   26.1420 C.3    47  THR47       0.1808
     23  OG1       16.9730   25.8220   26.2220 O.3    47  THR47      -0.2208
     24  CG2       19.0310   25.9060   24.9780 C.3    47  THR47       0.0379
     25  N         16.8330   23.2170   27.9450 N.am   48  ASP48      -0.1971
     26  CA        16.5890   22.8750   29.3520 C.3    48  ASP48       0.1709
     27  C         16.5260   21.3510   29.4520 C.2    48  ASP48       0.2293
     28  O         16.3900   20.7820   30.5570 O.2    48  ASP48      -0.2864
     29  CB        15.2760   23.5350   29.8240 C.3    48  ASP48       0.1436
     30  CG        14.0710   22.7730   29.3350 C.2    48  ASP48       0.3671
     31  OD1       14.1470   22.3070   28.0290 O.co2  48  ASP48      -0.2456
     32  OD2       13.0490   22.6000   29.9760 O.co2  48  ASP48      -0.2456
     33  N         14.4660   19.1970   28.0220 N.3    50  SER50      -0.1217
     34  CA        13.1450   18.6850   27.6360 C.3    50  SER50       0.1889
     35  C         13.1540   18.5550   26.1130 C.2    50  SER50       0.2288
     36  O         14.0560   19.0800   25.4250 O.2    50  SER50      -0.2866
     37  CB        12.0580   19.6300   28.0980 C.3    50  SER50       0.2089
     38  OG        11.8490   20.6960   27.1760 O.3    50  SER50      -0.2183
     39  N         10.2370   18.2150   22.6680 N.3    52  ASP52      -0.1239
     40  CA         8.8850   18.5180   22.1830 C.3    52  ASP52       0.1674
     41  C          8.4800   17.3510   21.2810 C.2    52  ASP52       0.2266
     42  O          9.3000   16.8250   20.4990 O.2    52  ASP52      -0.2867
     43  CB         8.8950   19.8670   21.4330 C.3    52  ASP52       0.1410
     44  CG         8.8640   21.0280   22.3910 C.2    52  ASP52       0.3668
     45  OD1        8.9770   20.9360   23.6010 O.co2  52  ASP52      -0.2456
     46  OD2        8.7780   22.1140   21.8850 O.co2  52  ASP52      -0.2456
     47  N          3.5110   19.4210   19.1390 N.3    57  GLN57      -0.1231
     48  CA         4.7420   19.5910   19.9210 C.3    57  GLN57       0.1698
     49  C          4.6220   19.8050   21.4310 C.2    57  GLN57       0.2592
     50  O          5.0780   20.8340   21.9740 O.2    57  GLN57      -0.2718
     51  CB         5.4940   20.7660   19.3620 C.3    57  GLN57       0.0381
     52  CG         6.0920   20.5020   18.0470 C.3    57  GLN57       0.0905
     53  CD         7.2560   19.5010   18.0490 C.2    57  GLN57       0.2608
     54  OE1        8.4210   19.9290   18.3510 O.2    57  GLN57      -0.2717
     55  NE2        6.9990   18.2830   17.8120 N.am   57  GLN57      -0.0878
     56  N          4.0100   18.8210   22.0690 N.am   58  ILE58      -0.1966
     57  CA         3.8050   18.8120   23.5240 C.3    58  ILE58       0.1727
     58  C          5.1240   18.5050   24.2330 C.2    58  ILE58       0.2616
     59  O          5.8740   17.5880   23.8320 O.2    58  ILE58      -0.2715
     60  CB         2.7700   17.7410   23.9510 C.3    58  ILE58       0.0290
     61  CG1        1.3570   17.9950   23.3560 C.3    58  ILE58       0.0022
     62  CG2        2.8820   17.7900   25.4760 C.3    58  ILE58       0.0023
     63  CD1        0.6720   16.7220   22.8090 C.3    58  ILE58       0.0001
     64  N          5.3700   19.2820   25.2780 N.am   59  ASN59      -0.1972
     65  CA         6.5980   19.1870   26.0790 C.3    59  ASN59       0.1688
     66  C          6.6570   18.0980   27.1500 C.2    59  ASN59       0.2292
     67  O          5.6460   17.7970   27.8210 O.2    59  ASN59      -0.2864
     68  CB         6.8500   20.5290   26.7990 C.3    59  ASN59       0.1181
     69  CG         8.3040   20.6950   27.1560 C.2    59  ASN59       0.2629
     70  OD1        8.6240   20.4630   28.4880 O.2    59  ASN59      -0.2716
     71  ND2        9.1730   21.0640   26.3860 N.am   59  ASN59      -0.0877
     72  N          6.5470   18.7830   31.4420 N.3    62  TRP62      -0.1227
     73  CA         5.2150   18.7470   32.0590 C.3    62  TRP62       0.1737
     74  C          4.0420   17.8360   31.6980 C.2    62  TRP62       0.2595
     75  O          3.3450   17.2980   32.5850 O.2    62  TRP62      -0.2718
     76  CB         4.5830   20.1340   31.9430 C.3    62  TRP62       0.0564
     77  CG         5.5480   21.3680   32.0810 C.ar   62  TRP62       0.0003
     78  CD1        6.2650   21.9930   31.1360 C.ar   62  TRP62       0.0946
     79  CD2        5.7850   22.0880   33.2560 C.ar   62  TRP62       0.0152
     80  NE1        7.0260   23.0730   31.7360 N.ar   62  TRP62      -0.2442
     81  CE2        6.6990   23.1420   32.9670 C.ar   62  TRP62       0.0810
     82  CE3        5.3130   21.9400   34.5400 C.ar   62  TRP62       0.0012
     83  CZ2        7.1720   24.0760   33.8930 C.ar   62  TRP62       0.0191
     84  CZ3        5.8070   22.8790   35.4700 C.ar   62  TRP62       0.0001
     85  CH2        6.6640   23.9220   35.1480 C.ar   62  TRP62       0.0015
     86  N          3.8580   17.6850   30.3960 N.am   63  TRP63      -0.1976
     87  CA         2.8110   16.8260   29.8280 C.3    63  TRP63       0.1640
     88  C          2.8970   15.3210   29.5880 C.2    63  TRP63       0.2290
     89  O          1.8780   14.5990   29.6520 O.2    63  TRP63      -0.2864
     90  CB         2.4370   17.3580   28.4440 C.3    63  TRP63       0.0576
     91  CG         2.3270   18.8990   28.7410 C.ar   63  TRP63       0.0006
     92  CD1        3.0750   19.9080   28.2730 C.ar   63  TRP63       0.0946
     93  CD2        1.3500   19.5060   29.5370 C.ar   63  TRP63       0.0152
     94  NE1        2.6140   21.1620   28.8400 N.ar   63  TRP63      -0.2442
     95  CE2        1.5780   20.9130   29.5410 C.ar   63  TRP63       0.0810
     96  CE3        0.2960   18.9940   30.2580 C.ar   63  TRP63       0.0012
     97  CZ2        0.8020   21.8540   30.2260 C.ar   63  TRP63       0.0191
     98  CZ3       -0.4720   19.9490   30.9560 C.ar   63  TRP63       0.0001
     99  CH2       -0.2510   21.3180   30.9050 C.ar   63  TRP63       0.0015
    100  N         -3.8220   21.2470   28.0570 N.3    98  ILE98      -0.1245
    101  CA        -2.6950   22.1880   28.0430 C.3    98  ILE98       0.1561
    102  C         -3.4430   23.5200   27.9570 C.2    98  ILE98       0.2260
    103  O         -3.2580   24.4200   28.8030 O.2    98  ILE98      -0.2867
    104  CB        -1.7590   21.9460   26.8330 C.3    98  ILE98       0.0252
    105  CG1       -0.7190   20.8220   27.0910 C.3    98  ILE98       0.0019
    106  CG2       -1.1970   23.3480   26.5890 C.3    98  ILE98       0.0019
    107  CD1       -0.3680   19.9970   25.8320 C.3    98  ILE98       0.0001
    108  N         -5.8460   25.1510   30.7910 N.3   101  ASP101     -0.1239
    109  CA        -5.1950   25.0280   32.1010 C.3   101  ASP101      0.1674
    110  C         -4.6880   26.4070   32.5260 C.2   101  ASP101      0.2266
    111  O         -4.1960   26.5920   33.6600 O.2   101  ASP101     -0.2867
    112  CB        -4.0400   24.0080   32.0100 C.3   101  ASP101      0.1410
    113  CG        -4.2500   23.0380   30.8750 C.2   101  ASP101      0.3668
    114  OD1       -5.3150   22.5170   30.5920 O.co2 101  ASP101     -0.2456
    115  OD2       -3.2890   22.8310   30.1870 O.co2 101  ASP101     -0.2456
    116  N         -3.1940   29.6030   30.0710 N.3   103  ASN103     -0.1240
    117  CA        -2.6590   30.5510   29.0850 C.3   103  ASN103      0.1653
    118  C         -3.2350   30.4040   27.6760 C.2   103  ASN103      0.2266
    119  O         -2.7740   31.0620   26.7180 O.2   103  ASN103     -0.2867
    120  CB        -1.1260   30.3910   28.9920 C.3   103  ASN103      0.1155
    121  CG        -0.4850   30.4480   30.3540 C.2   103  ASN103      0.2627
    122  OD1       -0.5970   31.3740   31.1380 O.2   103  ASN103     -0.2716
    123  ND2        0.1260   29.4670   30.6800 N.am  103  ASN103     -0.0877
    124  N          0.3680   28.9260   25.0330 N.3   107  ALA107     -0.1231
    125  CA         1.2310   27.8600   25.5590 C.3   107  ALA107      0.1694
    126  C          2.0970   27.3570   24.4040 C.2   107  ALA107      0.2592
    127  O          3.1190   26.6690   24.6160 O.2   107  ALA107     -0.2718
    128  CB         0.3770   26.6630   26.0090 C.3   107  ALA107      0.0304
    129  N          1.6650   27.7200   23.2070 N.am  108  TRP108     -0.1962
    130  CA         2.3580   27.3660   21.9610 C.3   108  TRP108      0.1771
    131  C          3.0150   28.5820   21.3050 C.2   108  TRP108      0.2619
    132  O          2.3610   29.3430   20.5580 O.2   108  TRP108     -0.2715
    133  CB         1.3550   26.7180   21.0080 C.3   108  TRP108      0.0590
    134  CG         0.9760   25.2230   21.3280 C.ar  108  TRP108      0.0006
    135  CD1        1.6970   24.1080   21.1450 C.ar  108  TRP108      0.0946
    136  CD2       -0.2090   24.7970   21.9360 C.ar  108  TRP108      0.0152
    137  NE1        0.9280   22.9540   21.5720 N.ar  108  TRP108     -0.2442
    138  CE2       -0.1660   23.3790   22.0730 C.ar  108  TRP108      0.0810
    139  CE3       -1.3170   25.4810   22.3810 C.ar  108  TRP108      0.0012
    140  CZ2       -1.1720   22.5920   22.6410 C.ar  108  TRP108      0.0191
    141  CZ3       -2.3330   24.6760   22.9390 C.ar  108  TRP108      0.0001
    142  CH2       -2.2420   23.3010   23.0980 C.ar  108  TRP108      0.0015
    143  N          4.2980   28.7280   21.5990 N.am  109  VAL109     -0.1977
    144  CA         5.0940   29.8870   21.1710 C.3   109  VAL109      0.1596
    145  C          4.8200   30.2150   19.7030 C.2   109  VAL109      0.2287
    146  O          4.5930   31.3880   19.3360 O.2   109  VAL109     -0.2864
    147  CB         6.5750   29.6030   21.3820 C.3   109  VAL109      0.0276
    148  CG1        7.0110   28.1500   21.0680 C.3   109  VAL109      0.0022
    149  CG2        7.4490   30.6250   20.7030 C.3   109  VAL109      0.0022
    150  N          1.2060   31.7130   19.1340 N.3   112  ARG112     -0.1245
    151  CA         1.3210   33.1040   19.5910 C.3   112  ARG112      0.1563
    152  C          1.9930   34.0980   18.6430 C.2   112  ARG112      0.2260
    153  O          1.4580   35.1950   18.3740 O.2   112  ARG112     -0.2867
    154  CB         2.1290   33.1970   20.9010 C.3   112  ARG112      0.0307
    155  CG         2.3230   34.6310   21.4280 C.3   112  ARG112      0.0489
    156  CD         3.2270   34.6200   22.6450 C.3   112  ARG112      0.2205
    157  NE         3.3520   33.2620   23.2000 N.pl3 112  ARG112     -0.0865
    158  CZ         4.5330   32.7110   23.5540 C.cat 112  ARG112      0.5346
    159  NH1        5.6900   33.3380   23.2940 N.pl3 112  ARG112      0.1354
    160  NH2        4.5350   31.5430   24.1710 N.pl3 112  ARG112      0.1354
@<TRIPOS>BOND
     1     1     2    1
     2     3     4    2
     3     3     2    1
     4     2     5    1
     5     5     6    1
     6     6     7    1
     7     8     7   ar
     8    55    53   am
     9     7     9   ar
    10    52    53    1
    11    52    51    1
    12    53    54    2
    13   153   152    2
    14   152   151    1
    15   150   151    1
    16    47    48    1
    17   146   145    2
    18    51    48    1
    19   151   154    1
    20   145   144    1
    21    48    49    1
    22    42    41    2
    23   132   131    2
    24   149   147    1
    25   154   155    1
    26   133   134    1
    27   133   130    1
    28   148   147    1
    29   135   134   ar
    30   135   137   ar
    31   144   147    1
    32   144   143    1
    33    41    40    1
    34   131   143   am
    35   131   130    1
    36   134   136   ar
    37   155   156    1
    38    49    50    2
    39    49    56   am
    40    43    40    1
    41    43    44    1
    42   137   138   ar
    43    46    44   ar
    44   136   138   ar
    45   136   139   ar
    46   130   129    1
    47    56    57    1
    48   138   140   ar
    49    40    39    1
    50   139   141   ar
    51    44    45   ar
    52   140   142   ar
    53   156   157    1
    54    63    61    1
    55   141   142   ar
    56    17    15   am
    57   157   158    2
    58   129   126   am
    59   159   158    1
    60    61    60    1
    61    10    11    1
    62    57    60    1
    63    57    58    1
    64   158   160    1
    65    59    58    2
    66    60    62    1
    67    11    12    1
    68    11    14    1
    69    15    16    2
    70    15    14    1
    71    58    64   am
    72   126   127    2
    73   126   125    1
    74    12    18   am
    75    12    13    2
    76    24    22    1
    77   124   125    1
    78    18    19    1
    79    64    65    1
    80    36    35    2
    81   125   128    1
    82   107   105    1
    83    19    22    1
    84    19    20    1
    85    65    68    1
    86    65    66    1
    87    35    34    1
    88    22    23    1
    89    71    69   am
    90   106   104    1
    91   119   118    2
    92    68    69    1
    93   104   105    1
    94   104   101    1
    95    66    67    2
    96    69    70    2
    97    38    37    1
    98    20    21    2
    99    20    25   am
   100    34    33    1
   101    34    37    1
   102   118   117    1
   103    25    26    1
   104   102   101    1
   105   102   103    2
   106    31    30   ar
   107   101   100    1
   108    92    91   ar
   109    92    94   ar
   110    90    91    1
   111    90    87    1
   112    91    93   ar
   113    94    95   ar
   114   120   117    1
   115   120   121    1
   116   117   116    1
   117    30    29    1
   118    30    32   ar
   119    26    27    1
   120    26    29    1
   121    27    28    2
   122    93    95   ar
   123    93    96   ar
   124    95    97   ar
   125    88    89    2
   126    88    87    1
   127    87    86    1
   128   115   113   ar
   129    97    99   ar
   130    96    98   ar
   131   121   123   am
   132   121   122    2
   133    86    74   am
   134   114   113   ar
   135   108   109    1
   136   113   112    1
   137    99    98   ar
   138    78    80   ar
   139    78    77   ar
   140    72    73    1
   141    74    73    1
   142    74    75    2
   143    80    81   ar
   144    76    73    1
   145    76    77    1
   146   112   109    1
   147    77    79   ar
   148   109   110    1
   149   110   111    2
   150    81    79   ar
   151    81    83   ar
   152    79    82   ar
   153    83    85   ar
   154    82    84   ar
   155    85    84   ar
