@<TRIPOS>MOLECULE
tmp/9rubA00.pdb
 138 129 0 0 0
SMALL
GASTEIGER

@<TRIPOS>ATOM
      1  N         32.8430   19.0850   41.9890 N.3   163  ILE163     -0.1245
      2  CA        33.6840   19.6320   40.9410 C.3   163  ILE163      0.1561
      3  C         33.6550   21.1390   41.1990 C.2   163  ILE163      0.2260
      4  O         32.5800   21.7490   41.1390 O.2   163  ILE163     -0.2867
      5  CB        33.1220   19.1890   39.5460 C.3   163  ILE163      0.0252
      6  CG1       33.4060   17.6780   39.2780 C.3   163  ILE163      0.0019
      7  CG2       33.5710   20.1260   38.3860 C.3   163  ILE163      0.0019
      8  CD1       32.1930   16.9950   38.5750 C.3   163  ILE163      0.0001
      9  N         33.4290   24.8540   40.6830 N.3   165  LYS165     -0.1245
     10  CA        32.9890   25.5620   39.4310 C.3   165  LYS165      0.1561
     11  C         33.1160   27.0690   39.6810 C.2   165  LYS165      0.2260
     12  O         32.8010   27.5950   40.7580 O.2   165  LYS165     -0.2867
     13  CB        31.7730   25.0350   38.6970 C.3   165  LYS165      0.0271
     14  CG        32.1330   23.6560   38.0950 C.3   165  LYS165      0.0035
     15  CD        31.4220   23.2310   36.8470 C.3   165  LYS165      0.0206
     16  CE        32.3130   23.0840   35.6160 C.3   165  LYS165      0.1093
     17  NZ        31.4420   22.9290   34.3790 N.3   165  LYS165     -0.1314
     18  N         35.1610   25.7990   36.0460 N.3   167  LYS167     -0.1245
     19  CA        36.1080   24.7960   35.5680 C.3   167  LYS167      0.1561
     20  C         37.5460   25.2560   35.3370 C.2   167  LYS167      0.2260
     21  O         38.4210   24.3510   35.2430 O.2   167  LYS167     -0.2867
     22  CB        35.6740   24.2450   34.2060 C.3   167  LYS167      0.0271
     23  CG        36.4010   23.0310   33.6310 C.3   167  LYS167      0.0035
     24  CD        35.5200   22.5130   32.4940 C.3   167  LYS167      0.0206
     25  CE        36.2320   21.8850   31.3100 C.3   167  LYS167      0.1093
     26  NZ        35.2360   20.9670   30.6610 N.3   167  LYS167     -0.1314
     27  N         37.4250   17.3000   43.4720 N.3   190  LYS190     -0.1301
     28  CA        38.3550   16.9050   42.3990 C.3   190  LYS190      0.1247
     29  C         38.5570   18.0790   41.4870 C.3   190  LYS190      0.2009
     30  O         37.4990   18.7000   41.2910 O.3   190  LYS190     -0.2188
     31  CB        37.7680   15.7410   41.7080 C.3   190  LYS190      0.0218
     32  CG        36.6670   15.9260   40.7530 C.3   190  LYS190      0.0031
     33  CD        36.4880   14.5890   40.0320 C.3   190  LYS190      0.0205
     34  CE        36.3720   14.7980   38.5630 C.3   190  LYS190      0.1093
     35  NZ        36.7390   16.1860   38.2040 N.3   190  LYS190     -0.1314
     36  N         38.6480   20.1520   37.9120 N.3   192  ASP192     -0.1225
     37  CA        37.9940   19.5890   36.6430 C.3   192  ASP192      0.1805
     38  C         39.0920   18.9480   35.7650 C.2   192  ASP192      0.2597
     39  O         40.3040   18.9410   36.0910 O.2   192  ASP192     -0.2718
     40  CB        37.0420   20.6170   36.0420 C.3   192  ASP192      0.1424
     41  CG        35.8780   20.1030   35.2310 C.2   192  ASP192      0.3668
     42  OD1       36.0000   18.9360   34.7850 O.co2 192  ASP192     -0.2456
     43  OD2       34.8210   20.7180   34.9780 O.co2 192  ASP192     -0.2456
     44  N         38.7810   18.4360   34.5630 N.am  193  GLU193     -0.1979
     45  CA        39.7780   17.7700   33.6820 C.3   193  GLU193      0.1602
     46  C         40.9430   18.5820   33.1420 C.2   193  GLU193      0.2287
     47  O         42.0850   18.0820   33.1190 O.2   193  GLU193     -0.2864
     48  CB        39.1550   16.8330   32.6870 C.3   193  GLU193      0.0415
     49  CG        38.0840   16.9300   31.6650 C.3   193  GLU193      0.1163
     50  CD        36.8970   17.8070   31.8040 C.2   193  GLU193      0.3649
     51  OE1       37.1760   18.9550   32.1720 O.co2 193  GLU193     -0.2457
     52  OE2       35.7500   17.4530   31.5260 O.co2 193  GLU193     -0.2457
     53  N         39.0960    9.1150   35.1520 N.3   286  HIS286     -0.1226
     54  CA        38.1050    9.9960   34.5610 C.3   286  HIS286      0.1752
     55  C         38.2050   10.0140   33.0370 C.2   286  HIS286      0.2595
     56  O         38.8940   10.8240   32.4300 O.2   286  HIS286     -0.2718
     57  CB        38.0330   11.4640   35.1100 C.3   286  HIS286      0.0759
     58  CG        37.2040   12.3880   34.2330 C.ar  286  HIS286      0.0818
     59  ND1       37.5080   13.6860   33.9620 N.ar  286  HIS286     -0.2268
     60  CD2       36.1070   12.1100   33.4760 C.ar  286  HIS286      0.1154
     61  CE1       36.6280   14.1630   33.0960 C.ar  286  HIS286      0.1986
     62  NE2       35.7620   13.2280   32.7860 N.ar  286  HIS286     -0.2212
     63  N         37.3970    9.2810   32.3320 N.am  287  ARG287     -0.1980
     64  CA        37.1850    9.0510   30.9200 C.3   287  ARG287      0.1597
     65  C         36.8590   10.1240   29.9040 C.2   287  ARG287      0.2287
     66  O         36.0450    9.8930   28.9740 O.2   287  ARG287     -0.2864
     67  CB        36.0620    7.9620   30.8670 C.3   287  ARG287      0.0334
     68  CG        34.8290    8.1640   31.7300 C.3   287  ARG287      0.0492
     69  CD        33.6000    7.7430   31.0130 C.3   287  ARG287      0.2205
     70  NE        33.5390    6.3120   30.7280 N.pl3 287  ARG287     -0.0865
     71  CZ        32.7310    5.6950   29.8650 C.cat 287  ARG287      0.5346
     72  NH1       31.8650    6.2700   29.0390 N.pl3 287  ARG287      0.1354
     73  NH2       32.7200    4.3540   29.8800 N.pl3 287  ARG287      0.1354
     74  N         35.5030    9.9670   25.3550 N.3   290  HIS290     -0.1241
     75  CA        35.0760    8.6040   25.1340 C.3   290  HIS290      0.1621
     76  C         33.9760    8.5640   24.0930 C.2   290  HIS290      0.2264
     77  O         33.8450    7.5860   23.3500 O.2   290  HIS290     -0.2867
     78  CB        34.4960    7.9120   26.3920 C.3   290  HIS290      0.0745
     79  CG        33.3120    8.5980   27.0250 C.ar  290  HIS290      0.0817
     80  ND1       33.4060    9.5480   28.0120 N.ar  290  HIS290     -0.2268
     81  CD2       31.9870    8.4500   26.8090 C.ar  290  HIS290      0.1154
     82  CE1       32.1950    9.9510   28.3630 C.ar  290  HIS290      0.1986
     83  NE2       31.3200    9.3060   27.6350 N.ar  290  HIS290     -0.2212
     84  N         34.4600    6.6750   36.1780 N.3   320  HIS320     -0.1241
     85  CA        33.2260    7.4010   35.9940 C.3   320  HIS320      0.1621
     86  C         32.2910    6.5960   35.1150 C.2   320  HIS320      0.2264
     87  O         32.0690    6.9020   33.9450 O.2   320  HIS320     -0.2867
     88  CB        33.5070    8.8320   35.5050 C.3   320  HIS320      0.0745
     89  CG        34.4090    9.6410   36.3840 C.ar  320  HIS320      0.0817
     90  ND1       34.4290   11.0220   36.3940 N.ar  320  HIS320     -0.2268
     91  CD2       35.3300    9.2570   37.3040 C.ar  320  HIS320      0.1154
     92  CE1       35.3420   11.4410   37.2620 C.ar  320  HIS320      0.1986
     93  NE2       35.8800   10.3960   37.8300 N.ar  320  HIS320     -0.2212
     94  N         29.0580    6.4850   34.6720 N.3   322  GLY322     -0.1210
     95  CA        27.9590    7.1280   33.9100 C.3   322  GLY322      0.1956
     96  C         26.9450    7.7990   34.8150 C.2   322  GLY322      0.2612
     97  O         27.2270    8.8280   35.4230 O.2   322  GLY322     -0.2717
     98  N         25.7650    7.2460   34.8560 N.am  323  THR323     -0.1952
     99  CA        24.5320    7.6040   35.5740 C.3   323  THR323      0.1897
    100  C         23.4300    6.6270   35.1630 C.2   323  THR323      0.2313
    101  O         23.4580    6.1500   33.9910 O.2   323  THR323     -0.2863
    102  CB        24.1370    9.1290   35.3130 C.3   323  THR323      0.1794
    103  OG1       22.8260    9.4430   35.8880 O.3   323  THR323     -0.2208
    104  CG2       24.2150    9.5590   33.8260 C.3   323  THR323      0.0378
    105  N         31.9010    5.5190   39.5230 N.3   365  ILE365     -0.1245
    106  CA        31.9630    6.9300   39.9060 C.3   365  ILE365      0.1561
    107  C         30.8330    7.5580   39.0640 C.2   365  ILE365      0.2260
    108  O         30.8750    7.8590   37.8850 O.2   365  ILE365     -0.2867
    109  CB        33.2870    7.6810   39.7250 C.3   365  ILE365      0.0252
    110  CG1       34.4130    6.9720   40.5200 C.3   365  ILE365      0.0019
    111  CG2       33.1520    9.1660   40.1470 C.3   365  ILE365      0.0019
    112  CD1       35.6820    7.8400   40.7880 C.3   365  ILE365      0.0001
    113  N         27.7640   10.3380   38.3560 N.3   367  SER367     -0.1202
    114  CA        27.7970   11.7930   38.2050 C.3   367  SER367      0.2020
    115  C         26.4550   12.2580   37.6240 C.2   367  SER367      0.2619
    116  O         25.8730   11.7030   36.6820 O.2   367  SER367     -0.2717
    117  CB        28.9090   12.3900   37.3480 C.3   367  SER367      0.2103
    118  OG        28.5630   12.4650   35.9640 O.3   367  SER367     -0.2182
    119  N         26.0070   13.3290   38.2610 N.am  368  GLY368     -0.1956
    120  CA        24.7280   13.9720   37.8770 C.3   368  GLY368      0.1869
    121  C         24.1710   14.5950   39.1560 C.2   368  GLY368      0.2309
    122  O         24.5750   15.6800   39.5950 O.2   368  GLY368     -0.2863
    123  N         29.6290   12.7010   42.5470 N.3   390  THR390     -0.1203
    124  CA        30.3190   13.9070   42.0510 C.3   390  THR390      0.1994
    125  C         29.0960   14.5970   41.5060 C.2   390  THR390      0.2618
    126  O         28.3770   13.9140   40.7510 O.2   390  THR390     -0.2717
    127  CB        31.3740   13.2800   41.0590 C.3   390  THR390      0.1784
    128  OG1       32.6700   13.4220   41.6890 O.3   390  THR390     -0.2211
    129  CG2       31.3630   13.7710   39.6280 C.3   390  THR390      0.0376
    130  N         28.8020   15.8020   41.9180 N.am  391  ALA391     -0.1965
    131  CA        27.5830   16.4250   41.3570 C.3   391  ALA391      0.1728
    132  C         27.9000   17.9070   41.1240 C.2   391  ALA391      0.2613
    133  O         28.8640   18.5160   41.6390 O.2   391  ALA391     -0.2715
    134  CB        26.3340   16.2640   42.1850 C.3   391  ALA391      0.0334
    135  N         26.9760   18.3370   40.2810 N.am  392  GLY392     -0.2012
    136  CA        26.9920   19.7680   39.8530 C.3   392  GLY392      0.1506
    137  C         25.8810   20.2430   40.7890 C.3   392  GLY392      0.2054
    138  O         24.8080   19.6650   40.5990 O.3   392  GLY392     -0.2184
@<TRIPOS>BOND
     1    77    76    2
     2    76    75    1
     3    75    74    1
     4    75    78    1
     5    78    79    1
     6    81    79   ar
     7    81    83   ar
     8    79    80   ar
     9    83    82   ar
    10    80    82   ar
    11    66    65    2
    12    72    71    1
    13    71    73    1
    14    71    70    2
    15    65    64    1
    16    26    25    1
    17    70    69    1
    18    67    64    1
    19    67    68    1
    20    64    63    1
    21    69    68    1
    22    25    24    1
    23    52    50   ar
    24    49    50    1
    25    49    48    1
    26    50    51   ar
    27    63    55   am
    28    56    55    2
    29    24    23    1
    30    48    45    1
    31    62    61   ar
    32    62    60   ar
    33    55    54    1
    34    61    59   ar
    35    47    46    2
    36    46    45    1
    37    60    58   ar
    38    23    22    1
    39    45    44    1
    40   104   102    1
    41    95    94    1
    42    95    96    1
    43    87    86    2
    44    59    58   ar
    45   101   100    2
    46    22    19    1
    47    58    57    1
    48    17    16    1
    49    54    57    1
    50    54    53    1
    51    44    38   am
    52    42    41   ar
    53    96    98   am
    54    96    97    2
    55    98    99    1
    56    43    41   ar
    57    86    85    1
    58   100    99    1
    59    41    40    1
    60    21    20    2
    61   102    99    1
    62   102   103    1
    63    20    19    1
    64    88    85    1
    65    88    89    1
    66    19    18    1
    67    16    15    1
    68    38    39    2
    69    38    37    1
    70   118   117    1
    71    85    84    1
    72    40    37    1
    73    89    90   ar
    74    89    91   ar
    75    90    92   ar
    76    37    36    1
    77   116   115    2
    78    15    14    1
    79    92    93   ar
    80    91    93   ar
    81   117   114    1
    82   115   114    1
    83   115   119   am
    84   120   119    1
    85   120   121    1
    86   108   107    2
    87    14    13    1
    88    35    34    1
    89   114   113    1
    90     7     5    1
    91    34    33    1
    92     8     6    1
    93    13    10    1
    94   107   106    1
    95   121   122    2
    96     6     5    1
    97    10    11    1
    98    10     9    1
    99   105   106    1
   100     5     2    1
   101   129   127    1
   102    11    12    2
   103   109   106    1
   104   109   111    1
   105   109   110    1
   106   136   135    1
   107   136   137    1
   108    33    32    1
   109   135   132   am
   110   110   112    1
   111   138   137    1
   112   126   125    2
   113    32    31    1
   114     2     3    1
   115     2     1    1
   116   127   128    1
   117   127   124    1
   118   132   131    1
   119   132   133    2
   120     4     3    2
   121    30    29    1
   122   131   130    1
   123   131   134    1
   124    29    28    1
   125   125   130   am
   126   125   124    1
   127    31    28    1
   128   124   123    1
   129    28    27    1
