@<TRIPOS>MOLECULE
tmp/9xiaA00.pdb
 157 149 0 0 0
SMALL
GASTEIGER

@<TRIPOS>ATOM
      1  N         36.5370   25.7080   63.3380 N.3    16  TRP16      -0.1241
      2  CA        37.6180   25.9710   62.4050 C.3    16  TRP16       0.1605
      3  C         38.6790   26.9090   62.9360 C.2    16  TRP16       0.2264
      4  O         39.7010   27.0740   62.1920 O.2    16  TRP16      -0.2867
      5  CB        36.9970   26.4550   61.0530 C.3    16  TRP16       0.0550
      6  CG        36.4800   27.8530   61.1640 C.ar   16  TRP16       0.0003
      7  CD1       37.2220   29.0400   60.9930 C.ar   16  TRP16       0.0946
      8  CD2       35.1780   28.2830   61.5270 C.ar   16  TRP16       0.0152
      9  NE1       36.4300   30.1680   61.2350 N.ar   16  TRP16      -0.2442
     10  CE2       35.1780   29.7190   61.5220 C.ar   16  TRP16       0.0810
     11  CE3       34.0100   27.5920   61.8230 C.ar   16  TRP16       0.0012
     12  CZ2       34.0410   30.4550   61.7990 C.ar   16  TRP16       0.0191
     13  CZ3       32.8840   28.3600   62.0840 C.ar   16  TRP16       0.0001
     14  CH2       32.8900   29.7450   62.1000 C.ar   16  TRP16       0.0015
     15  N         30.9850   25.2520   60.3540 N.3    54  HIS54      -0.1241
     16  CA        30.6080   25.1900   58.9450 C.3    54  HIS54       0.1621
     17  C         30.1750   23.6910   58.8160 C.2    54  HIS54       0.2264
     18  O         30.8030   22.8600   59.5550 O.2    54  HIS54      -0.2867
     19  CB        31.8870   25.1540   58.0700 C.3    54  HIS54       0.0745
     20  CG        32.2770   26.5750   57.7860 C.ar   54  HIS54       0.0817
     21  ND1       31.7030   27.4080   56.8240 N.ar   54  HIS54      -0.2268
     22  CD2       33.2090   27.2830   58.4430 C.ar   54  HIS54       0.1154
     23  CE1       32.2890   28.5830   56.9010 C.ar   54  HIS54       0.1986
     24  NE2       33.1850   28.5060   57.8460 N.ar   54  HIS54      -0.2212
     25  N         25.1680   29.8580   66.1620 N.3    88  MET88      -0.1245
     26  CA        25.2850   30.2270   64.7410 C.3    88  MET88       0.1570
     27  C         25.8850   29.0380   64.0290 C.2    88  MET88       0.2261
     28  O         26.7110   28.2750   64.5730 O.2    88  MET88      -0.2867
     29  CB        26.2120   31.4410   64.6450 C.3    88  MET88       0.0387
     30  CG        26.4570   32.0200   63.2680 C.3    88  MET88       0.0595
     31  SD        27.8420   31.1290   62.4550 S.3    88  MET88      -0.1393
     32  CE        29.2080   32.0870   63.1450 C.3    88  MET88       0.0692
     33  N         26.9900   27.8860   59.6600 N.3    90  THR90      -0.1203
     34  CA        27.2260   28.5090   58.3020 C.3    90  THR90       0.1994
     35  C         27.6530   27.4140   57.3350 C.2    90  THR90       0.2618
     36  O         27.7690   26.2510   57.7670 O.2    90  THR90      -0.2717
     37  CB        28.3930   29.5220   58.6570 C.3    90  THR90       0.1784
     38  OG1       28.8940   30.2590   57.5440 O.3    90  THR90      -0.2211
     39  CG2       29.6580   28.9320   59.3250 C.3    90  THR90       0.0376
     40  N         27.7740   27.6830   56.0760 N.am   91  THR91      -0.1952
     41  CA        28.0800   26.7220   55.0150 C.3    91  THR91       0.1897
     42  C         29.4830   26.9040   54.4330 C.2    91  THR91       0.2313
     43  O         29.9270   28.0370   54.1580 O.2    91  THR91      -0.2863
     44  CB        27.1190   26.9060   53.7920 C.3    91  THR91       0.1794
     45  OG1       25.8200   27.3180   54.3720 O.3    91  THR91      -0.2208
     46  CG2       26.9430   25.5450   53.0750 C.3    91  THR91       0.0378
     47  N         33.4200   27.2230   49.7950 N.3    94  PHE94      -0.1241
     48  CA        34.6960   27.7410   49.2990 C.3    94  PHE94       0.1605
     49  C         35.8080   26.7560   49.1720 C.2    94  PHE94       0.2264
     50  O         36.6930   26.9880   48.3220 O.2    94  PHE94      -0.2867
     51  CB        35.1240   28.9900   50.1830 C.3    94  PHE94       0.0534
     52  CG        35.1020   28.7320   51.6930 C.ar   94  PHE94      -0.0203
     53  CD1       36.1940   28.1360   52.3080 C.ar   94  PHE94      -0.0042
     54  CD2       33.9670   29.0610   52.4560 C.ar   94  PHE94      -0.0042
     55  CE1       36.2260   27.8780   53.6780 C.ar   94  PHE94      -0.0003
     56  CE2       34.0030   28.8050   53.8710 C.ar   94  PHE94      -0.0003
     57  CZ        35.0760   28.2110   54.4380 C.ar   94  PHE94      -0.0000
     58  N         25.0440   32.2140   59.1480 N.3   135  VAL135     -0.1245
     59  CA        25.9130   33.1920   58.4180 C.3   135  VAL135      0.1561
     60  C         26.2450   32.7560   57.0240 C.2   135  VAL135      0.2260
     61  O         26.4380   31.5690   56.7980 O.2   135  VAL135     -0.2867
     62  CB        27.1880   33.4750   59.2900 C.3   135  VAL135      0.0252
     63  CG1       28.3910   34.1250   58.5950 C.3   135  VAL135      0.0019
     64  CG2       26.8830   34.2440   60.5970 C.3   135  VAL135      0.0019
     65  N         29.1680   33.6290   54.1120 N.3   137  TRP137     -0.1298
     66  CA        30.3990   34.3570   53.6820 C.3   137  TRP137      0.1291
     67  C         30.6150   33.9110   52.1980 C.3   137  TRP137      0.2013
     68  O         31.0360   32.7370   52.1010 O.3   137  TRP137     -0.2188
     69  CB        31.6340   34.0200   54.5400 C.3   137  TRP137      0.0497
     70  CG        32.9000   34.5920   53.9480 C.ar  137  TRP137     -0.0001
     71  CD1       33.1650   35.9130   53.5870 C.ar  137  TRP137      0.0946
     72  CD2       34.0670   33.8570   53.5900 C.ar  137  TRP137      0.0152
     73  NE1       34.4320   36.0170   53.0690 N.ar  137  TRP137     -0.2442
     74  CE2       35.0040   34.8070   53.0470 C.ar  137  TRP137      0.0810
     75  CE3       34.4360   32.5130   53.6800 C.ar  137  TRP137      0.0012
     76  CZ2       36.2620   34.4430   52.5790 C.ar  137  TRP137      0.0191
     77  CZ3       35.6730   32.1540   53.2040 C.ar  137  TRP137      0.0001
     78  CH2       36.5730   33.0770   52.6520 C.ar  137  TRP137      0.0015
     79  N         28.3340   38.0680   55.6890 N.3   181  GLU181     -0.1196
     80  CA        29.6250   38.6320   56.1800 C.3   181  GLU181      0.1783
     81  C         30.4100   39.1190   55.0090 C.2   181  GLU181      0.2306
     82  O         30.7660   38.3220   54.0810 O.2   181  GLU181     -0.2863
     83  CB        30.3620   37.4820   56.8360 C.2   181  GLU181      0.0071
     84  CG        31.7760   37.6340   57.1060 C.2   181  GLU181      0.0834
     85  CD        32.8690   36.8190   57.5620 C.2   181  GLU181      0.3877
     86  OE1       33.8330   36.5330   56.8230 O.co2 181  GLU181     -0.2406
     87  OE2       32.7290   36.4010   58.6880 O.co2 181  GLU181     -0.2406
     88  N         27.1170   40.2740   59.4480 N.3   215  ASN215     -0.1240
     89  CA        28.0710   39.6450   60.3860 C.3   215  ASN215      0.1653
     90  C         29.4440   40.3070   60.0030 C.2   215  ASN215      0.2266
     91  O         30.2790   39.7540   59.2450 O.2   215  ASN215     -0.2867
     92  CB        28.0630   38.0960   60.1620 C.3   215  ASN215      0.1155
     93  CG        29.0390   37.5080   61.1920 C.2   215  ASN215      0.2627
     94  OD1       28.9760   37.9240   62.3530 O.2   215  ASN215     -0.2716
     95  ND2       29.9320   36.6460   60.8270 N.am  215  ASN215     -0.0877
     96  N         33.3240   41.5160   60.2550 N.3   217  GLU217     -0.1245
     97  CA        34.4910   40.9530   60.8970 C.3   217  GLU217      0.1567
     98  C         35.5370   42.0460   61.0810 C.2   217  GLU217      0.2260
     99  O         35.7520   42.7570   60.0920 O.2   217  GLU217     -0.2867
    100  CB        35.1050   39.8050   59.9890 C.3   217  GLU217      0.0388
    101  CG        36.2270   39.1960   60.7800 C.3   217  GLU217      0.1160
    102  CD        36.8460   38.0330   60.0830 C.2   217  GLU217      0.3649
    103  OE1       37.9590   37.9390   59.8690 O.co2 217  GLU217     -0.2457
    104  OE2       36.1020   37.2000   59.7570 O.co2 217  GLU217     -0.2457
    105  N         38.2820   42.1630   58.2910 N.3   220  HIS220     -0.1241
    106  CA        37.8200   42.4180   56.8890 C.3   220  HIS220      0.1621
    107  C         37.6200   43.8830   56.5610 C.2   220  HIS220      0.2264
    108  O         38.1170   44.2520   55.4990 O.2   220  HIS220     -0.2867
    109  CB        36.5920   41.5910   56.6170 C.3   220  HIS220      0.0745
    110  CG        36.8730   40.1290   56.7450 C.ar  220  HIS220      0.0817
    111  ND1       35.8680   39.1980   56.5030 N.ar  220  HIS220     -0.2268
    112  CD2       38.0300   39.4260   57.0200 C.ar  220  HIS220      0.1154
    113  CE1       36.4090   38.0010   56.6610 C.ar  220  HIS220      0.1986
    114  NE2       37.6700   38.1320   56.9340 N.ar  220  HIS220     -0.2212
    115  N         32.0390   39.1710   64.1520 N.3   245  ASP245     -0.1239
    116  CA        33.2770   38.3370   64.1710 C.3   245  ASP245      0.1674
    117  C         34.4650   39.1970   64.6800 C.2   245  ASP245      0.2266
    118  O         34.8230   40.1820   64.0670 O.2   245  ASP245     -0.2867
    119  CB        33.6800   37.6840   62.9020 C.3   245  ASP245      0.1410
    120  CG        32.9300   36.4620   62.6200 C.2   245  ASP245      0.3668
    121  OD1       33.3020   35.7840   61.7130 O.co2 245  ASP245     -0.2456
    122  OD2       31.8880   36.0260   63.2010 O.co2 245  ASP245     -0.2456
    123  N         43.5270   37.2260   60.7300 N.3   257  ASP257     -0.1239
    124  CA        42.7720   36.5410   61.7230 C.3   257  ASP257      0.1674
    125  C         43.5810   36.3520   63.0320 C.2   257  ASP257      0.2266
    126  O         43.5830   35.2310   63.5390 O.2   257  ASP257     -0.2867
    127  CB        42.2160   35.2170   61.2020 C.3   257  ASP257      0.1410
    128  CG        41.1280   35.2790   60.2230 C.2   257  ASP257      0.3668
    129  OD1       40.6790   34.2980   59.5710 O.co2 257  ASP257     -0.2456
    130  OD2       40.5770   36.3730   60.0000 O.co2 257  ASP257     -0.2456
    131  N         31.6090   36.4770   69.0870 N.3   285  HIS285     -0.1297
    132  CA        32.2890   35.3340   68.4220 C.3   285  HIS285      0.1306
    133  C         33.6980   35.5910   67.9340 C.3   285  HIS285      0.2013
    134  O         33.7910   36.6630   67.3230 O.3   285  HIS285     -0.2188
    135  CB        31.3530   35.0420   67.2410 C.3   285  HIS285      0.0691
    136  CG        31.7070   33.9170   66.3810 C.ar  285  HIS285      0.0814
    137  ND1       32.0610   34.0090   65.0350 N.ar  285  HIS285     -0.2268
    138  CD2       31.7870   32.6170   66.6500 C.ar  285  HIS285      0.1154
    139  CE1       32.3150   32.8040   64.5380 C.ar  285  HIS285      0.1986
    140  NE2       32.1960   31.9230   65.5430 N.ar  285  HIS285     -0.2212
    141  N         36.6230   34.7720   65.3580 N.3   287  ASP287     -0.1239
    142  CA        36.9150   34.1070   64.0870 C.3   287  ASP287      0.1674
    143  C         38.4260   34.4170   63.9740 C.2   287  ASP287      0.2266
    144  O         38.8010   35.4860   63.4580 O.2   287  ASP287     -0.2867
    145  CB        36.0210   34.5000   62.9530 C.3   287  ASP287      0.1410
    146  CG        36.4680   33.7120   61.7320 C.2   287  ASP287      0.3668
    147  OD1       37.2380   32.7620   61.7410 O.co2 287  ASP287     -0.2456
    148  OD2       36.0950   34.0950   60.6590 O.co2 287  ASP287     -0.2456
    149  N         42.7350   32.5930   64.0150 N.3   289  LYS289     -0.1245
    150  CA        43.5880   31.4400   63.7480 C.3   289  LYS289      0.1561
    151  C         44.8160   31.5680   64.6260 C.2   289  LYS289      0.2260
    152  O         45.5890   32.5690   64.4610 O.2   289  LYS289     -0.2867
    153  CB        44.1100   31.4840   62.2990 C.3   289  LYS289      0.0271
    154  CG        43.0520   31.1290   61.2450 C.3   289  LYS289      0.0035
    155  CD        43.6250   31.3370   59.8580 C.3   289  LYS289      0.0206
    156  CE        42.7180   30.8840   58.7370 C.3   289  LYS289      0.1093
    157  NZ        41.2300   31.2110   59.0230 N.3   289  LYS289     -0.1314
@<TRIPOS>BOND
     1    50    49    2
     2    49    48    1
     3    48    47    1
     4    48    51    1
     5    51    52    1
     6    52    53   ar
     7    52    54   ar
     8    68    67    1
     9    67    66    1
    10    53    55   ar
    11    54    56   ar
    12    76    78   ar
    13    76    74   ar
    14    78    77   ar
    15    74    73   ar
    16    74    72   ar
    17    73    71   ar
    18    46    44    1
    19    77    75   ar
    20    71    70   ar
    21    72    75   ar
    22    72    70   ar
    23    55    57   ar
    24    66    65    1
    25    66    69    1
    26    44    45    1
    27    44    41    1
    28    56    57   ar
    29    70    69    1
    30    82    81    2
    31    43    42    2
    32    42    41    1
    33    81    80    1
    34    41    40    1
    35   108   107    2
    36    79    80    1
    37    40    35   am
    38    80    83    1
    39   111   113   ar
    40   111   110   ar
    41   107   106    1
    42   109   110    1
    43   109   106    1
    44   113   114   ar
    45   110   112   ar
    46    61    60    2
    47    86    85   ar
    48    21    23   ar
    49    21    20   ar
    50    83    84    2
    51   106   105    1
    52    23    24   ar
    53   114   112   ar
    54    60    59    1
    55    84    85    1
    56    35    36    2
    57    35    34    1
    58    38    37    1
    59    85    87   ar
    60    20    19    1
    61    20    22   ar
    62    24    22   ar
    63    19    16    1
    64    34    37    1
    65    34    33    1
    66    59    58    1
    67    59    62    1
    68    63    62    1
    69    37    39    1
    70   156   157    1
    71   156   155    1
    72    17    16    1
    73    17    18    2
    74    16    15    1
    75    91    90    2
    76    62    64    1
    77    88    89    1
    78   129   128   ar
    79   104   102   ar
    80   155   154    1
    81   103   102   ar
    82   100   101    1
    83   100    97    1
    84   130   128   ar
    85    90    89    1
    86   102   101    1
    87    99    98    2
    88    92    89    1
    89    92    93    1
    90   128   127    1
    91    96    97    1
    92   148   146   ar
    93   123   124    1
    94    95    93   am
    95    97    98    1
    96     7     6   ar
    97     7     9   ar
    98     5     6    1
    99     5     2    1
   100     6     8   ar
   101    93    94    2
   102   127   124    1
   103     9    10   ar
   104   154   153    1
   105    10     8   ar
   106    10    12   ar
   107     8    11   ar
   108   121   120   ar
   109   124   125    1
   110   146   147   ar
   111   146   145    1
   112    12    14   ar
   113    11    13   ar
   114    13    14   ar
   115     4     3    2
   116   153   150    1
   117     2     3    1
   118     2     1    1
   119    31    32    1
   120    31    30    1
   121   120   119    1
   122   120   122   ar
   123   119   116    1
   124   145   142    1
   125   125   126    2
   126    30    29    1
   127   144   143    2
   128   150   149    1
   129   150   151    1
   130   143   142    1
   131    27    28    2
   132    27    26    1
   133   118   117    2
   134   142   141    1
   135   115   116    1
   136   116   117    1
   137   152   151    2
   138   139   137   ar
   139   139   140   ar
   140    29    26    1
   141    26    25    1
   142   137   136   ar
   143   140   138   ar
   144   136   138   ar
   145   136   135    1
   146   135   132    1
   147   134   133    1
   148   133   132    1
   149   132   131    1
